1



                                 *********************************************

                                    NUMERICAL ELECTROMAGNETICS CODE (NEC-2D)

                                 *********************************************




                                     - - - - COMMENTS - - - -


                          NGF test program 1                                                           




                                 - - - STRUCTURE SPECIFICATION - - -

                                     COORDINATES MUST BE INPUT IN
                                     METERS OR BE SCALED TO METERS
                                     BEFORE STRUCTURE INPUT IS ENDED


  WIRE                                                                               NO. OF    FIRST  LAST     TAG
  NO.        X1         Y1         Z1          X2         Y2         Z2      RADIUS   SEG.     SEG.   SEG.     NO.
     1    0.00000    0.00000    0.00000     0.00000    0.00000    0.10000    0.00150     10        1    10       1
     2    0.00000    0.00000    0.10000     0.10000    0.00000    0.10000    0.00150     10       11    20       2
     3    0.10000    0.00000    0.10000     0.10000    0.00000    0.20000    0.00150     10       21    30       3
     4    0.10000    0.00000    0.20000     0.10000    0.10000    0.20000    0.00150     10       31    40       4

   TOTAL SEGMENTS USED=   40     NO. SEG. IN A SYMMETRIC CELL=   40     SYMMETRY FLAG=  0


         - MULTIPLE WIRE JUNCTIONS -
 JUNCTION    SEGMENTS  (- FOR END 1, + FOR END 2)
  NONE




                                 - - - - SEGMENTATION DATA - - - -

                                        COORDINATES IN METERS

                         I+ AND I- INDICATE THE SEGMENTS BEFORE AND AFTER I


  SEG.   COORDINATES OF SEG. CENTER     SEG.     ORIENTATION ANGLES    WIRE    CONNECTION DATA   TAG
  NO.       X         Y         Z       LENGTH     ALPHA     BETA      RADIUS    I-   I    I+    NO.
     1   0.00000   0.00000   0.00500   0.01000   90.00000   0.00000   0.00150     0    1    2      1
     2   0.00000   0.00000   0.01500   0.01000   90.00000   0.00000   0.00150     1    2    3      1
     3   0.00000   0.00000   0.02500   0.01000   90.00000   0.00000   0.00150     2    3    4      1
     4   0.00000   0.00000   0.03500   0.01000   90.00000   0.00000   0.00150     3    4    5      1
     5   0.00000   0.00000   0.04500   0.01000   90.00000   0.00000   0.00150     4    5    6      1
     6   0.00000   0.00000   0.05500   0.01000   90.00000   0.00000   0.00150     5    6    7      1
     7   0.00000   0.00000   0.06500   0.01000   90.00000   0.00000   0.00150     6    7    8      1
     8   0.00000   0.00000   0.07500   0.01000   90.00000   0.00000   0.00150     7    8    9      1
     9   0.00000   0.00000   0.08500   0.01000   90.00000   0.00000   0.00150     8    9   10      1
    10   0.00000   0.00000   0.09500   0.01000   90.00000   0.00000   0.00150     9   10   11      1
    11   0.00500   0.00000   0.10000   0.01000    0.00000   0.00000   0.00150    10   11   12      2
    12   0.01500   0.00000   0.10000   0.01000    0.00000   0.00000   0.00150    11   12   13      2
    13   0.02500   0.00000   0.10000   0.01000    0.00000   0.00000   0.00150    12   13   14      2
    14   0.03500   0.00000   0.10000   0.01000    0.00000   0.00000   0.00150    13   14   15      2
    15   0.04500   0.00000   0.10000   0.01000    0.00000   0.00000   0.00150    14   15   16      2
    16   0.05500   0.00000   0.10000   0.01000    0.00000   0.00000   0.00150    15   16   17      2
    17   0.06500   0.00000   0.10000   0.01000    0.00000   0.00000   0.00150    16   17   18      2
    18   0.07500   0.00000   0.10000   0.01000    0.00000   0.00000   0.00150    17   18   19      2
    19   0.08500   0.00000   0.10000   0.01000    0.00000   0.00000   0.00150    18   19   20      2
    20   0.09500   0.00000   0.10000   0.01000    0.00000   0.00000   0.00150    19   20   21      2
    21   0.10000   0.00000   0.10500   0.01000   90.00000   0.00000   0.00150    20   21   22      3
    22   0.10000   0.00000   0.11500   0.01000   90.00000   0.00000   0.00150    21   22   23      3
    23   0.10000   0.00000   0.12500   0.01000   90.00000   0.00000   0.00150    22   23   24      3
    24   0.10000   0.00000   0.13500   0.01000   90.00000   0.00000   0.00150    23   24   25      3
    25   0.10000   0.00000   0.14500   0.01000   90.00000   0.00000   0.00150    24   25   26      3
    26   0.10000   0.00000   0.15500   0.01000   90.00000   0.00000   0.00150    25   26   27      3
    27   0.10000   0.00000   0.16500   0.01000   90.00000   0.00000   0.00150    26   27   28      3
    28   0.10000   0.00000   0.17500   0.01000   90.00000   0.00000   0.00150    27   28   29      3
    29   0.10000   0.00000   0.18500   0.01000   90.00000   0.00000   0.00150    28   29   30      3
    30   0.10000   0.00000   0.19500   0.01000   90.00000   0.00000   0.00150    29   30   31      3
    31   0.10000   0.00500   0.20000   0.01000    0.00000  90.00000   0.00150    30   31   32      4
    32   0.10000   0.01500   0.20000   0.01000    0.00000  90.00000   0.00150    31   32   33      4
    33   0.10000   0.02500   0.20000   0.01000    0.00000  90.00000   0.00150    32   33   34      4
    34   0.10000   0.03500   0.20000   0.01000    0.00000  90.00000   0.00150    33   34   35      4
    35   0.10000   0.04500   0.20000   0.01000    0.00000  90.00000   0.00150    34   35   36      4
    36   0.10000   0.05500   0.20000   0.01000    0.00000  90.00000   0.00150    35   36   37      4
    37   0.10000   0.06500   0.20000   0.01000    0.00000  90.00000   0.00150    36   37   38      4
    38   0.10000   0.07500   0.20000   0.01000    0.00000  90.00000   0.00150    37   38   39      4
    39   0.10000   0.08500   0.20000   0.01000    0.00000  90.00000   0.00150    38   39   40      4
    40   0.10000   0.09500   0.20000   0.01000    0.00000  90.00000   0.00150    39   40    0      4






 ***** DATA CARD NO.  1   FR   0     1     0     0  1.00000E+03  0.00000E+00  0.00000E+00  0.00000E+00  0.00000E+00  0.00000E+00
 ***** DATA CARD NO.  2   WG   0     0     0     0  0.00000E+00  0.00000E+00  0.00000E+00  0.00000E+00  0.00000E+00  0.00000E+00




                                 - - - - - - FREQUENCY - - - - - -

                                    FREQUENCY= 1.0000E+03 MHZ
                                    WAVELENGTH= 2.9979E-01 METERS




                    APPROXIMATE INTEGRATION EMPLOYED FOR SEGMENTS MORE THAN   1.000 WAVELENGTHS APART



                               - - - STRUCTURE IMPEDANCE LOADING - - -

                                   THIS STRUCTURE IS NOT LOADED



                                  - - - ANTENNA ENVIRONMENT - - -

                                            FREE SPACE



                                - - - MATRIX TIMING - - -

                        FILL=    0.050 SEC.,  FACTOR=    0.000 SEC.



 ****NUMERICAL GREEN'S FUNCTION FILE ON TAPE 20 ****
     MATRIX STORAGE -   1600 COMPLEX NUMBERS



 ***** DATA CARD NO.  3   EX   1     1     1     0  9.00000E+01  0.00000E+00  0.00000E+00  0.00000E+00  0.00000E+00  0.00000E+00
 ***** DATA CARD NO.  4   XQ   0     0     0     0  0.00000E+00  0.00000E+00  0.00000E+00  0.00000E+00  0.00000E+00  0.00000E+00



                                        - - - EXCITATION - - -

    PLANE WAVE    THETA=  90.00 DEG,  PHI=   0.00 DEG,  ETA=   0.00 DEG,  TYPE -LINEAR=  AXIAL RATIO= 0.000



                             - - - CURRENTS AND LOCATION - - -

                                 DISTANCES IN WAVELENGTHS


  SEG.  TAG    COORD. OF SEG. CENTER     SEG.            - - - CURRENT (AMPS) - - -
  NO.   NO.     X        Y        Z      LENGTH     REAL        IMAG.       MAG.        PHASE
     1    1   0.0000   0.0000   0.0167  0.03336  -3.5384E-05 -2.6588E-05  4.4260E-05 -143.079
     2    1   0.0000   0.0000   0.0500  0.03336  -7.7562E-05 -4.9065E-05  9.1778E-05 -147.683
     3    1   0.0000   0.0000   0.0834  0.03336  -1.1178E-04 -5.7141E-05  1.2554E-04 -152.924
     4    1   0.0000   0.0000   0.1167  0.03336  -1.4025E-04 -5.4172E-05  1.5035E-04 -158.881
     5    1   0.0000   0.0000   0.1501  0.03336  -1.6237E-04 -4.1024E-05  1.6747E-04 -165.820
     6    1   0.0000   0.0000   0.1835  0.03336  -1.7751E-04 -1.8598E-05  1.7848E-04 -174.019
     7    1   0.0000   0.0000   0.2168  0.03336  -1.8519E-04  1.2086E-05  1.8558E-04  176.266
     8    1   0.0000   0.0000   0.2502  0.03336  -1.8516E-04  4.9870E-05  1.9176E-04  164.926
     9    1   0.0000   0.0000   0.2835  0.03336  -1.7745E-04  9.3505E-05  2.0058E-04  152.214
    10    1   0.0000   0.0000   0.3169  0.03336  -1.6233E-04  1.4218E-04  2.1579E-04  138.785
    11    2   0.0167   0.0000   0.3336  0.03336  -1.4030E-04  1.9585E-04  2.4092E-04  125.617
    12    2   0.0500   0.0000   0.3336  0.03336  -1.1487E-04  2.4190E-04  2.6778E-04  115.402
    13    2   0.0834   0.0000   0.3336  0.03336  -8.6438E-05  2.7814E-04  2.9126E-04  107.264
    14    2   0.1167   0.0000   0.3336  0.03336  -5.5860E-05  3.0345E-04  3.0854E-04  100.431
    15    2   0.1501   0.0000   0.3336  0.03336  -2.4233E-05  3.1695E-04  3.1787E-04   94.372
    16    2   0.1835   0.0000   0.3336  0.03336   7.2879E-06  3.1829E-04  3.1838E-04   88.688
    17    2   0.2168   0.0000   0.3336  0.03336   3.7540E-05  3.0763E-04  3.0991E-04   83.043
    18    2   0.2502   0.0000   0.3336  0.03336   6.5416E-05  2.8562E-04  2.9302E-04   77.100
    19    2   0.2835   0.0000   0.3336  0.03336   8.9907E-05  2.5344E-04  2.6891E-04   70.468
    20    2   0.3169   0.0000   0.3336  0.03336   1.1021E-04  2.1272E-04  2.3958E-04   62.611
    21    3   0.3336   0.0000   0.3502  0.03336   1.2482E-04  1.6396E-04  2.0607E-04   52.718
    22    3   0.3336   0.0000   0.3836  0.03336   1.2647E-04  1.0427E-04  1.6391E-04   39.504
    23    3   0.3336   0.0000   0.4170  0.03336   1.1599E-04  3.5282E-05  1.2124E-04   16.919
    24    3   0.3336   0.0000   0.4503  0.03336   9.4346E-05 -3.9979E-05  1.0247E-04  -22.965
    25    3   0.3336   0.0000   0.4837  0.03336   6.2493E-05 -1.1842E-04  1.3390E-04  -62.179
    26    3   0.3336   0.0000   0.5170  0.03336   2.1668E-05 -1.9693E-04  1.9811E-04  -83.721
    27    3   0.3336   0.0000   0.5504  0.03336  -2.6655E-05 -2.7245E-04  2.7375E-04  -95.588
    28    3   0.3336   0.0000   0.5837  0.03336  -8.0830E-05 -3.4218E-04  3.5159E-04 -103.291
    29    3   0.3336   0.0000   0.6171  0.03336  -1.3914E-04 -4.0361E-04  4.2692E-04 -109.021
    30    3   0.3336   0.0000   0.6504  0.03336  -2.0038E-04 -4.5510E-04  4.9726E-04 -113.764
    31    4   0.3336   0.0167   0.6671  0.03336  -2.6385E-04 -4.9670E-04  5.6243E-04 -117.978
    32    4   0.3336   0.0500   0.6671  0.03336  -3.1336E-04 -5.2226E-04  6.0906E-04 -120.964
    33    4   0.3336   0.0834   0.6671  0.03336  -3.4669E-04 -5.2985E-04  6.3320E-04 -123.197
    34    4   0.3336   0.1167   0.6671  0.03336  -3.6269E-04 -5.1874E-04  6.3295E-04 -124.960
    35    4   0.3336   0.1501   0.6671  0.03336  -3.6057E-04 -4.8895E-04  6.0752E-04 -126.406
    36    4   0.3336   0.1835   0.6671  0.03336  -3.4017E-04 -4.4124E-04  5.5715E-04 -127.630
    37    4   0.3336   0.2168   0.6671  0.03336  -3.0191E-04 -3.7693E-04  4.8293E-04 -128.694
    38    4   0.3336   0.2502   0.6671  0.03336  -2.4658E-04 -2.9761E-04  3.8649E-04 -129.643
    39    4   0.3336   0.2835   0.6671  0.03336  -1.7505E-04 -2.0486E-04  2.6947E-04 -130.513
    40    4   0.3336   0.3169   0.6671  0.03336  -8.1579E-05 -9.2821E-05  1.2358E-04 -131.312






 ***** DATA CARD NO.  5   EN   0     0     0     0  0.00000E+00  0.00000E+00  0.00000E+00  0.00000E+00  0.00000E+00  0.00000E+00

 RUN TIME =     0.060
