1



                                 *********************************************

                                    NUMERICAL ELECTROMAGNETICS CODE (NEC-2D)

                                 *********************************************




                                     - - - - COMMENTS - - - -


                          Dipole 900 Free space                                                        




                                 - - - STRUCTURE SPECIFICATION - - -

                                     COORDINATES MUST BE INPUT IN
                                     METERS OR BE SCALED TO METERS
                                     BEFORE STRUCTURE INPUT IS ENDED


  WIRE                                                                               NO. OF    FIRST  LAST     TAG
  NO.        X1         Y1         Z1          X2         Y2         Z2      RADIUS   SEG.     SEG.   SEG.     NO.
     1   -0.07450    0.00000    0.01500     0.07450    0.00000    0.01500    0.00180     21        1    21       1

   GROUND PLANE SPECIFIED.

   WHERE WIRE ENDS TOUCH GROUND, CURRENT WILL BE INTERPOLATED TO IMAGE IN GROUND PLANE.


   TOTAL SEGMENTS USED=   21     NO. SEG. IN A SYMMETRIC CELL=   21     SYMMETRY FLAG=  0


         - MULTIPLE WIRE JUNCTIONS -
 JUNCTION    SEGMENTS  (- FOR END 1, + FOR END 2)
  NONE




                                 - - - - SEGMENTATION DATA - - - -

                                        COORDINATES IN METERS

                         I+ AND I- INDICATE THE SEGMENTS BEFORE AND AFTER I


  SEG.   COORDINATES OF SEG. CENTER     SEG.     ORIENTATION ANGLES    WIRE    CONNECTION DATA   TAG
  NO.       X         Y         Z       LENGTH     ALPHA     BETA      RADIUS    I-   I    I+    NO.
     1  -0.07095   0.00000   0.01500   0.00710    0.00000   0.00000   0.00180     0    1    2      1
     2  -0.06386   0.00000   0.01500   0.00710    0.00000   0.00000   0.00180     1    2    3      1
     3  -0.05676   0.00000   0.01500   0.00710    0.00000   0.00000   0.00180     2    3    4      1
     4  -0.04967   0.00000   0.01500   0.00710    0.00000   0.00000   0.00180     3    4    5      1
     5  -0.04257   0.00000   0.01500   0.00710    0.00000   0.00000   0.00180     4    5    6      1
     6  -0.03548   0.00000   0.01500   0.00710    0.00000   0.00000   0.00180     5    6    7      1
     7  -0.02838   0.00000   0.01500   0.00710    0.00000   0.00000   0.00180     6    7    8      1
     8  -0.02129   0.00000   0.01500   0.00710    0.00000   0.00000   0.00180     7    8    9      1
     9  -0.01419   0.00000   0.01500   0.00710    0.00000   0.00000   0.00180     8    9   10      1
    10  -0.00710   0.00000   0.01500   0.00710    0.00000   0.00000   0.00180     9   10   11      1
    11   0.00000   0.00000   0.01500   0.00710    0.00000   0.00000   0.00180    10   11   12      1
    12   0.00710   0.00000   0.01500   0.00710    0.00000   0.00000   0.00180    11   12   13      1
    13   0.01419   0.00000   0.01500   0.00710    0.00000   0.00000   0.00180    12   13   14      1
    14   0.02129   0.00000   0.01500   0.00710    0.00000   0.00000   0.00180    13   14   15      1
    15   0.02838   0.00000   0.01500   0.00710    0.00000   0.00000   0.00180    14   15   16      1
    16   0.03548   0.00000   0.01500   0.00710    0.00000   0.00000   0.00180    15   16   17      1
    17   0.04257   0.00000   0.01500   0.00710    0.00000   0.00000   0.00180    16   17   18      1
    18   0.04967   0.00000   0.01500   0.00710    0.00000   0.00000   0.00180    17   18   19      1
    19   0.05676   0.00000   0.01500   0.00710    0.00000   0.00000   0.00180    18   19   20      1
    20   0.06386   0.00000   0.01500   0.00710    0.00000   0.00000   0.00180    19   20   21      1
    21   0.07095   0.00000   0.01500   0.00710    0.00000   0.00000   0.00180    20   21    0      1






 ***** DATA CARD NO.  1   GN   2     0     0     0  4.15000E+01  9.70000E-01  4.15000E+01  9.70000E-01  1.00000E+00  0.00000E+00
 ***** DATA CARD NO.  2   EK   0     0     0     0  0.00000E+00  0.00000E+00  0.00000E+00  0.00000E+00  0.00000E+00  0.00000E+00
 ***** DATA CARD NO.  3   EX   0     1    11     0  1.00000E+00  0.00000E+00  0.00000E+00  0.00000E+00  0.00000E+00  0.00000E+00
 ***** DATA CARD NO.  4   LD   0     1    11    11  5.00000E+01  0.00000E+00  0.00000E+00  0.00000E+00  0.00000E+00  0.00000E+00
 ***** DATA CARD NO.  5   FR   0   100     0     0  5.00000E+02  1.00000E+01  0.00000E+00  0.00000E+00  0.00000E+00  0.00000E+00
 ***** DATA CARD NO.  6   XQ   0     0     0     0  0.00000E+00  0.00000E+00  0.00000E+00  0.00000E+00  0.00000E+00  0.00000E+00




                                 - - - - - - FREQUENCY - - - - - -

                                    FREQUENCY= 5.0000E+02 MHZ
                                    WAVELENGTH= 5.9958E-01 METERS




                    APPROXIMATE INTEGRATION EMPLOYED FOR SEGMENTS MORE THAN   1.000 WAVELENGTHS APART

                    THE EXTENDED THIN WIRE KERNEL WILL BE USED



                               - - - STRUCTURE IMPEDANCE LOADING - - -


       LOCATION          RESISTANCE   INDUCTANCE  CAPACITANCE       IMPEDANCE (OHMS)     CONDUCTIVITY    TYPE
    ITAG FROM THRU          OHMS        HENRYS       FARADS        REAL      IMAGINARY    MHOS/METER

       1   11   11      5.0000E+01                                                                     SERIES 



                                  - - - ANTENNA ENVIRONMENT - - -

                                        FINITE GROUND.  SOMMERFELD SOLUTION
                                        RELATIVE DIELECTRIC CONST.= 41.500
                                        CONDUCTIVITY= 9.700E-01 MHOS/METER
                                        COMPLEX DIELECTRIC CONSTANT= 4.15000E+01-3.48717E+01



                                - - - MATRIX TIMING - - -

                        FILL=    0.006 SEC.,  FACTOR=    0.000 SEC.



                                          - - - ANTENNA INPUT PARAMETERS - - -

   TAG   SEG.    VOLTAGE (VOLTS)         CURRENT (AMPS)         IMPEDANCE (OHMS)        ADMITTANCE (MHOS)      POWER
   NO.   NO.    REAL        IMAG.       REAL        IMAG.       REAL        IMAG.       REAL        IMAG.     (WATTS)
     1    11 1.00000E+00 0.00000E+00 9.20741E-04 3.58630E-03 6.71616E+01-2.61596E+02 9.20741E-04 3.58630E-03 4.60370E-04



                             - - - CURRENTS AND LOCATION - - -

                                 DISTANCES IN WAVELENGTHS


  SEG.  TAG    COORD. OF SEG. CENTER     SEG.            - - - CURRENT (AMPS) - - -
  NO.   NO.     X        Y        Z      LENGTH     REAL        IMAG.       MAG.        PHASE
     1    1  -0.1183   0.0000   0.0250  0.01183   1.0207E-04  3.4993E-04  3.6451E-04   73.738
     2    1  -0.1065   0.0000   0.0250  0.01183   2.1432E-04  7.3864E-04  7.6910E-04   73.820
     3    1  -0.0947   0.0000   0.0250  0.01183   3.1235E-04  1.0834E-03  1.1275E-03   73.917
     4    1  -0.0828   0.0000   0.0250  0.01183   4.0464E-04  1.4140E-03  1.4708E-03   74.031
     5    1  -0.0710   0.0000   0.0250  0.01183   4.9163E-04  1.7331E-03  1.8014E-03   74.163
     6    1  -0.0592   0.0000   0.0250  0.01183   5.7324E-04  2.0414E-03  2.1203E-03   74.315
     7    1  -0.0473   0.0000   0.0250  0.01183   6.4920E-04  2.3393E-03  2.4277E-03   74.489
     8    1  -0.0355   0.0000   0.0250  0.01183   7.1946E-04  2.6281E-03  2.7248E-03   74.690
     9    1  -0.0237   0.0000   0.0250  0.01183   7.8449E-04  2.9120E-03  3.0158E-03   74.923
    10    1  -0.0118   0.0000   0.0250  0.01183   8.5037E-04  3.2246E-03  3.3349E-03   75.227
    11    1   0.0000   0.0000   0.0250  0.01183   9.2074E-04  3.5863E-03  3.7026E-03   75.601
    12    1   0.0118   0.0000   0.0250  0.01183   8.5037E-04  3.2246E-03  3.3349E-03   75.227
    13    1   0.0237   0.0000   0.0250  0.01183   7.8449E-04  2.9120E-03  3.0158E-03   74.923
    14    1   0.0355   0.0000   0.0250  0.01183   7.1946E-04  2.6281E-03  2.7248E-03   74.690
    15    1   0.0473   0.0000   0.0250  0.01183   6.4920E-04  2.3393E-03  2.4277E-03   74.489
    16    1   0.0592   0.0000   0.0250  0.01183   5.7324E-04  2.0414E-03  2.1203E-03   74.315
    17    1   0.0710   0.0000   0.0250  0.01183   4.9163E-04  1.7331E-03  1.8014E-03   74.163
    18    1   0.0828   0.0000   0.0250  0.01183   4.0464E-04  1.4140E-03  1.4708E-03   74.031
    19    1   0.0947   0.0000   0.0250  0.01183   3.1235E-04  1.0834E-03  1.1275E-03   73.917
    20    1   0.1065   0.0000   0.0250  0.01183   2.1432E-04  7.3864E-04  7.6910E-04   73.820
    21    1   0.1183   0.0000   0.0250  0.01183   1.0207E-04  3.4993E-04  3.6451E-04   73.738



                                        - - - POWER BUDGET - - -

                                           INPUT POWER   = 4.6037E-04 WATTS
                                           RADIATED POWER= 1.1764E-04 WATTS
                                           STRUCTURE LOSS= 3.4273E-04 WATTS
                                           NETWORK LOSS  = 0.0000E+00 WATTS
                                           EFFICIENCY    =  25.55 PERCENT




                                 - - - - - - FREQUENCY - - - - - -

                                    FREQUENCY= 5.1000E+02 MHZ
                                    WAVELENGTH= 5.8783E-01 METERS




                    APPROXIMATE INTEGRATION EMPLOYED FOR SEGMENTS MORE THAN   1.000 WAVELENGTHS APART

                    THE EXTENDED THIN WIRE KERNEL WILL BE USED



                               - - - STRUCTURE IMPEDANCE LOADING - - -


       LOCATION          RESISTANCE   INDUCTANCE  CAPACITANCE       IMPEDANCE (OHMS)     CONDUCTIVITY    TYPE
    ITAG FROM THRU          OHMS        HENRYS       FARADS        REAL      IMAGINARY    MHOS/METER

       1   11   11      5.0000E+01                                                                     SERIES 



                                  - - - ANTENNA ENVIRONMENT - - -

                                        FINITE GROUND.  SOMMERFELD SOLUTION
                                        RELATIVE DIELECTRIC CONST.= 41.500
                                        CONDUCTIVITY= 9.700E-01 MHOS/METER
                                        COMPLEX DIELECTRIC CONSTANT= 4.15000E+01-3.41879E+01



                                - - - MATRIX TIMING - - -

                        FILL=    0.007 SEC.,  FACTOR=    0.000 SEC.



                                          - - - ANTENNA INPUT PARAMETERS - - -

   TAG   SEG.    VOLTAGE (VOLTS)         CURRENT (AMPS)         IMPEDANCE (OHMS)        ADMITTANCE (MHOS)      POWER
   NO.   NO.    REAL        IMAG.       REAL        IMAG.       REAL        IMAG.       REAL        IMAG.     (WATTS)
     1    11 1.00000E+00 0.00000E+00 9.87612E-04 3.69339E-03 6.75683E+01-2.52686E+02 9.87612E-04 3.69339E-03 4.93806E-04



                             - - - CURRENTS AND LOCATION - - -

                                 DISTANCES IN WAVELENGTHS


  SEG.  TAG    COORD. OF SEG. CENTER     SEG.            - - - CURRENT (AMPS) - - -
  NO.   NO.     X        Y        Z      LENGTH     REAL        IMAG.       MAG.        PHASE
     1    1  -0.1207   0.0000   0.0255  0.01207   1.1009E-04  3.6239E-04  3.7874E-04   73.103
     2    1  -0.1086   0.0000   0.0255  0.01207   2.3117E-04  7.6489E-04  7.9906E-04   73.184
     3    1  -0.0966   0.0000   0.0255  0.01207   3.3692E-04  1.1217E-03  1.1712E-03   73.282
     4    1  -0.0845   0.0000   0.0255  0.01207   4.3639E-04  1.4636E-03  1.5273E-03   73.398
     5    1  -0.0724   0.0000   0.0255  0.01207   5.3003E-04  1.7933E-03  1.8700E-03   73.534
     6    1  -0.0604   0.0000   0.0255  0.01207   6.1774E-04  2.1114E-03  2.1999E-03   73.692
     7    1  -0.0483   0.0000   0.0255  0.01207   6.9922E-04  2.4182E-03  2.5172E-03   73.873
     8    1  -0.0362   0.0000   0.0255  0.01207   7.7437E-04  2.7150E-03  2.8233E-03   74.081
     9    1  -0.0241   0.0000   0.0255  0.01207   8.4367E-04  3.0060E-03  3.1221E-03   74.323
    10    1  -0.0121   0.0000   0.0255  0.01207   9.1348E-04  3.3253E-03  3.4485E-03   74.639
    11    1   0.0000   0.0000   0.0255  0.01207   9.8761E-04  3.6934E-03  3.8232E-03   75.029
    12    1   0.0121   0.0000   0.0255  0.01207   9.1349E-04  3.3253E-03  3.4485E-03   74.639
    13    1   0.0241   0.0000   0.0255  0.01207   8.4369E-04  3.0060E-03  3.1222E-03   74.322
    14    1   0.0362   0.0000   0.0255  0.01207   7.7441E-04  2.7151E-03  2.8233E-03   74.080
    15    1   0.0483   0.0000   0.0255  0.01207   6.9927E-04  2.4182E-03  2.5173E-03   73.872
    16    1   0.0604   0.0000   0.0255  0.01207   6.1781E-04  2.1114E-03  2.1999E-03   73.690
    17    1   0.0724   0.0000   0.0255  0.01207   5.3011E-04  1.7933E-03  1.8700E-03   73.532
    18    1   0.0845   0.0000   0.0255  0.01207   4.3648E-04  1.4637E-03  1.5274E-03   73.395
    19    1   0.0966   0.0000   0.0255  0.01207   3.3703E-04  1.1218E-03  1.1713E-03   73.277
    20    1   0.1086   0.0000   0.0255  0.01207   2.3131E-04  7.6497E-04  7.9917E-04   73.176
    21    1   0.1207   0.0000   0.0255  0.01207   1.1018E-04  3.6244E-04  3.7882E-04   73.091



                                        - - - POWER BUDGET - - -

                                           INPUT POWER   = 4.9381E-04 WATTS
                                           RADIATED POWER= 1.2839E-04 WATTS
                                           STRUCTURE LOSS= 3.6541E-04 WATTS
                                           NETWORK LOSS  = 0.0000E+00 WATTS
                                           EFFICIENCY    =  26.00 PERCENT




                                 - - - - - - FREQUENCY - - - - - -

                                    FREQUENCY= 5.2000E+02 MHZ
                                    WAVELENGTH= 5.7652E-01 METERS




                    APPROXIMATE INTEGRATION EMPLOYED FOR SEGMENTS MORE THAN   1.000 WAVELENGTHS APART

                    THE EXTENDED THIN WIRE KERNEL WILL BE USED



                               - - - STRUCTURE IMPEDANCE LOADING - - -


       LOCATION          RESISTANCE   INDUCTANCE  CAPACITANCE       IMPEDANCE (OHMS)     CONDUCTIVITY    TYPE
    ITAG FROM THRU          OHMS        HENRYS       FARADS        REAL      IMAGINARY    MHOS/METER

       1   11   11      5.0000E+01                                                                     SERIES 



                                  - - - ANTENNA ENVIRONMENT - - -

                                        FINITE GROUND.  SOMMERFELD SOLUTION
                                        RELATIVE DIELECTRIC CONST.= 41.500
                                        CONDUCTIVITY= 9.700E-01 MHOS/METER
                                        COMPLEX DIELECTRIC CONSTANT= 4.15000E+01-3.35305E+01



                                - - - MATRIX TIMING - - -

                        FILL=    0.007 SEC.,  FACTOR=    0.000 SEC.



                                          - - - ANTENNA INPUT PARAMETERS - - -

   TAG   SEG.    VOLTAGE (VOLTS)         CURRENT (AMPS)         IMPEDANCE (OHMS)        ADMITTANCE (MHOS)      POWER
   NO.   NO.    REAL        IMAG.       REAL        IMAG.       REAL        IMAG.       REAL        IMAG.     (WATTS)
     1    11 1.00000E+00 0.00000E+00 1.05952E-03 3.80275E-03 6.79900E+01-2.44024E+02 1.05952E-03 3.80275E-03 5.29760E-04



                             - - - CURRENTS AND LOCATION - - -

                                 DISTANCES IN WAVELENGTHS


  SEG.  TAG    COORD. OF SEG. CENTER     SEG.            - - - CURRENT (AMPS) - - -
  NO.   NO.     X        Y        Z      LENGTH     REAL        IMAG.       MAG.        PHASE
     1    1  -0.1231   0.0000   0.0260  0.01231   1.1885E-04  3.7529E-04  3.9366E-04   72.427
     2    1  -0.1108   0.0000   0.0260  0.01231   2.4954E-04  7.9202E-04  8.3040E-04   72.512
     3    1  -0.0985   0.0000   0.0260  0.01231   3.6361E-04  1.1612E-03  1.2168E-03   72.613
     4    1  -0.0861   0.0000   0.0260  0.01231   4.7081E-04  1.5148E-03  1.5863E-03   72.734
     5    1  -0.0738   0.0000   0.0260  0.01231   5.7162E-04  1.8553E-03  1.9414E-03   72.876
     6    1  -0.0615   0.0000   0.0260  0.01231   6.6590E-04  2.1834E-03  2.2827E-03   73.039
     7    1  -0.0492   0.0000   0.0260  0.01231   7.5330E-04  2.4993E-03  2.6104E-03   73.227
     8    1  -0.0369   0.0000   0.0260  0.01231   8.3368E-04  2.8043E-03  2.9256E-03   73.444
     9    1  -0.0246   0.0000   0.0260  0.01231   9.0751E-04  3.1024E-03  3.2324E-03   73.695
    10    1  -0.0123   0.0000   0.0260  0.01231   9.8147E-04  3.4283E-03  3.5660E-03   74.024
    11    1   0.0000   0.0000   0.0260  0.01231   1.0595E-03  3.8027E-03  3.9476E-03   74.431
    12    1   0.0123   0.0000   0.0260  0.01231   9.8148E-04  3.4283E-03  3.5660E-03   74.024
    13    1   0.0246   0.0000   0.0260  0.01231   9.0754E-04  3.1024E-03  3.2324E-03   73.694
    14    1   0.0369   0.0000   0.0260  0.01231   8.3372E-04  2.8043E-03  2.9256E-03   73.443
    15    1   0.0492   0.0000   0.0260  0.01231   7.5336E-04  2.4993E-03  2.6104E-03   73.226
    16    1   0.0615   0.0000   0.0260  0.01231   6.6597E-04  2.1834E-03  2.2827E-03   73.038
    17    1   0.0738   0.0000   0.0260  0.01231   5.7171E-04  1.8553E-03  1.9414E-03   72.874
    18    1   0.0861   0.0000   0.0260  0.01231   4.7092E-04  1.5149E-03  1.5864E-03   72.731
    19    1   0.0985   0.0000   0.0260  0.01231   3.6374E-04  1.1613E-03  1.2169E-03   72.609
    20    1   0.1108   0.0000   0.0260  0.01231   2.4969E-04  7.9210E-04  8.3052E-04   72.504
    21    1   0.1231   0.0000   0.0260  0.01231   1.1895E-04  3.7535E-04  3.9374E-04   72.416



                                        - - - POWER BUDGET - - -

                                           INPUT POWER   = 5.2976E-04 WATTS
                                           RADIATED POWER= 1.4017E-04 WATTS
                                           STRUCTURE LOSS= 3.8959E-04 WATTS
                                           NETWORK LOSS  = 0.0000E+00 WATTS
                                           EFFICIENCY    =  26.46 PERCENT




                                 - - - - - - FREQUENCY - - - - - -

                                    FREQUENCY= 5.3000E+02 MHZ
                                    WAVELENGTH= 5.6565E-01 METERS




                    APPROXIMATE INTEGRATION EMPLOYED FOR SEGMENTS MORE THAN   1.000 WAVELENGTHS APART

                    THE EXTENDED THIN WIRE KERNEL WILL BE USED



                               - - - STRUCTURE IMPEDANCE LOADING - - -


       LOCATION          RESISTANCE   INDUCTANCE  CAPACITANCE       IMPEDANCE (OHMS)     CONDUCTIVITY    TYPE
    ITAG FROM THRU          OHMS        HENRYS       FARADS        REAL      IMAGINARY    MHOS/METER

       1   11   11      5.0000E+01                                                                     SERIES 



                                  - - - ANTENNA ENVIRONMENT - - -

                                        FINITE GROUND.  SOMMERFELD SOLUTION
                                        RELATIVE DIELECTRIC CONST.= 41.500
                                        CONDUCTIVITY= 9.700E-01 MHOS/METER
                                        COMPLEX DIELECTRIC CONSTANT= 4.15000E+01-3.28978E+01



                                - - - MATRIX TIMING - - -

                        FILL=    0.006 SEC.,  FACTOR=    0.000 SEC.



                                          - - - ANTENNA INPUT PARAMETERS - - -

   TAG   SEG.    VOLTAGE (VOLTS)         CURRENT (AMPS)         IMPEDANCE (OHMS)        ADMITTANCE (MHOS)      POWER
   NO.   NO.    REAL        IMAG.       REAL        IMAG.       REAL        IMAG.       REAL        IMAG.     (WATTS)
     1    11 1.00000E+00 0.00000E+00 1.13678E-03 3.91436E-03 6.84210E+01-2.35600E+02 1.13678E-03 3.91436E-03 5.68389E-04



                             - - - CURRENTS AND LOCATION - - -

                                 DISTANCES IN WAVELENGTHS


  SEG.  TAG    COORD. OF SEG. CENTER     SEG.            - - - CURRENT (AMPS) - - -
  NO.   NO.     X        Y        Z      LENGTH     REAL        IMAG.       MAG.        PHASE
     1    1  -0.1254   0.0000   0.0265  0.01254   1.2833E-04  3.8858E-04  4.0922E-04   71.724
     2    1  -0.1129   0.0000   0.0265  0.01254   2.6940E-04  8.1996E-04  8.6308E-04   71.812
     3    1  -0.1003   0.0000   0.0265  0.01254   3.9247E-04  1.2020E-03  1.2644E-03   71.917
     4    1  -0.0878   0.0000   0.0265  0.01254   5.0802E-04  1.5675E-03  1.6477E-03   72.042
     5    1  -0.0753   0.0000   0.0265  0.01254   6.1656E-04  1.9191E-03  2.0157E-03   72.189
     6    1  -0.0627   0.0000   0.0265  0.01254   7.1790E-04  2.2574E-03  2.3688E-03   72.358
     7    1  -0.0502   0.0000   0.0265  0.01254   8.1166E-04  2.5827E-03  2.7072E-03   72.554
     8    1  -0.0376   0.0000   0.0265  0.01254   8.9764E-04  2.8959E-03  3.0318E-03   72.778
     9    1  -0.0251   0.0000   0.0265  0.01254   9.7631E-04  3.2012E-03  3.3468E-03   73.039
    10    1  -0.0125   0.0000   0.0265  0.01254   1.0546E-03  3.5337E-03  3.6877E-03   73.382
    11    1   0.0000   0.0000   0.0265  0.01254   1.1368E-03  3.9144E-03  4.0761E-03   73.806
    12    1   0.0125   0.0000   0.0265  0.01254   1.0547E-03  3.5337E-03  3.6877E-03   73.382
    13    1   0.0251   0.0000   0.0265  0.01254   9.7634E-04  3.2012E-03  3.3468E-03   73.039
    14    1   0.0376   0.0000   0.0265  0.01254   8.9769E-04  2.8959E-03  3.0319E-03   72.777
    15    1   0.0502   0.0000   0.0265  0.01254   8.1172E-04  2.5827E-03  2.7072E-03   72.552
    16    1   0.0627   0.0000   0.0265  0.01254   7.1799E-04  2.2575E-03  2.3689E-03   72.357
    17    1   0.0753   0.0000   0.0265  0.01254   6.1666E-04  1.9191E-03  2.0158E-03   72.187
    18    1   0.0878   0.0000   0.0265  0.01254   5.0814E-04  1.5675E-03  1.6478E-03   72.039
    19    1   0.1003   0.0000   0.0265  0.01254   3.9260E-04  1.2020E-03  1.2645E-03   71.912
    20    1   0.1129   0.0000   0.0265  0.01254   2.6957E-04  8.2004E-04  8.6321E-04   71.803
    21    1   0.1254   0.0000   0.0265  0.01254   1.2844E-04  3.8863E-04  4.0931E-04   71.712



                                        - - - POWER BUDGET - - -

                                           INPUT POWER   = 5.6839E-04 WATTS
                                           RADIATED POWER= 1.5303E-04 WATTS
                                           STRUCTURE LOSS= 4.1536E-04 WATTS
                                           NETWORK LOSS  = 0.0000E+00 WATTS
                                           EFFICIENCY    =  26.92 PERCENT




                                 - - - - - - FREQUENCY - - - - - -

                                    FREQUENCY= 5.4000E+02 MHZ
                                    WAVELENGTH= 5.5517E-01 METERS




                    APPROXIMATE INTEGRATION EMPLOYED FOR SEGMENTS MORE THAN   1.000 WAVELENGTHS APART

                    THE EXTENDED THIN WIRE KERNEL WILL BE USED



                               - - - STRUCTURE IMPEDANCE LOADING - - -


       LOCATION          RESISTANCE   INDUCTANCE  CAPACITANCE       IMPEDANCE (OHMS)     CONDUCTIVITY    TYPE
    ITAG FROM THRU          OHMS        HENRYS       FARADS        REAL      IMAGINARY    MHOS/METER

       1   11   11      5.0000E+01                                                                     SERIES 



                                  - - - ANTENNA ENVIRONMENT - - -

                                        FINITE GROUND.  SOMMERFELD SOLUTION
                                        RELATIVE DIELECTRIC CONST.= 41.500
                                        CONDUCTIVITY= 9.700E-01 MHOS/METER
                                        COMPLEX DIELECTRIC CONSTANT= 4.15000E+01-3.22886E+01



                                - - - MATRIX TIMING - - -

                        FILL=    0.006 SEC.,  FACTOR=    0.000 SEC.



                                          - - - ANTENNA INPUT PARAMETERS - - -

   TAG   SEG.    VOLTAGE (VOLTS)         CURRENT (AMPS)         IMPEDANCE (OHMS)        ADMITTANCE (MHOS)      POWER
   NO.   NO.    REAL        IMAG.       REAL        IMAG.       REAL        IMAG.       REAL        IMAG.     (WATTS)
     1    11 1.00000E+00 0.00000E+00 1.21981E-03 4.02822E-03 6.88594E+01-2.27397E+02 1.21981E-03 4.02822E-03 6.09905E-04



                             - - - CURRENTS AND LOCATION - - -

                                 DISTANCES IN WAVELENGTHS


  SEG.  TAG    COORD. OF SEG. CENTER     SEG.            - - - CURRENT (AMPS) - - -
  NO.   NO.     X        Y        Z      LENGTH     REAL        IMAG.       MAG.        PHASE
     1    1  -0.1278   0.0000   0.0270  0.01278   1.3858E-04  4.0226E-04  4.2546E-04   70.991
     2    1  -0.1150   0.0000   0.0270  0.01278   2.9088E-04  8.4872E-04  8.9718E-04   71.082
     3    1  -0.1022   0.0000   0.0270  0.01278   4.2367E-04  1.2439E-03  1.3140E-03   71.191
     4    1  -0.0895   0.0000   0.0270  0.01278   5.4825E-04  1.6217E-03  1.7118E-03   71.321
     5    1  -0.0767   0.0000   0.0270  0.01278   6.6513E-04  1.9847E-03  2.0932E-03   71.473
     6    1  -0.0639   0.0000   0.0270  0.01278   7.7408E-04  2.3335E-03  2.4586E-03   71.648
     7    1  -0.0511   0.0000   0.0270  0.01278   8.7466E-04  2.6682E-03  2.8079E-03   71.851
     8    1  -0.0383   0.0000   0.0270  0.01278   9.6664E-04  2.9898E-03  3.1422E-03   72.084
     9    1  -0.0256   0.0000   0.0270  0.01278   1.0505E-03  3.3024E-03  3.4655E-03   72.355
    10    1  -0.0128   0.0000   0.0270  0.01278   1.1334E-03  3.6415E-03  3.8138E-03   72.711
    11    1   0.0000   0.0000   0.0270  0.01278   1.2198E-03  4.0282E-03  4.2089E-03   73.153
    12    1   0.0128   0.0000   0.0270  0.01278   1.1334E-03  3.6415E-03  3.8138E-03   72.711
    13    1   0.0256   0.0000   0.0270  0.01278   1.0505E-03  3.3024E-03  3.4655E-03   72.354
    14    1   0.0383   0.0000   0.0270  0.01278   9.6669E-04  2.9899E-03  3.1423E-03   72.083
    15    1   0.0511   0.0000   0.0270  0.01278   8.7473E-04  2.6683E-03  2.8080E-03   71.849
    16    1   0.0639   0.0000   0.0270  0.01278   7.7417E-04  2.3336E-03  2.4586E-03   71.647
    17    1   0.0767   0.0000   0.0270  0.01278   6.6523E-04  1.9847E-03  2.0933E-03   71.470
    18    1   0.0895   0.0000   0.0270  0.01278   5.4838E-04  1.6217E-03  1.7119E-03   71.317
    19    1   0.1022   0.0000   0.0270  0.01278   4.2382E-04  1.2439E-03  1.3142E-03   71.186
    20    1   0.1150   0.0000   0.0270  0.01278   2.9106E-04  8.4881E-04  8.9732E-04   71.073
    21    1   0.1278   0.0000   0.0270  0.01278   1.3870E-04  4.0231E-04  4.2555E-04   70.978



                                        - - - POWER BUDGET - - -

                                           INPUT POWER   = 6.0991E-04 WATTS
                                           RADIATED POWER= 1.6704E-04 WATTS
                                           STRUCTURE LOSS= 4.4286E-04 WATTS
                                           NETWORK LOSS  = 0.0000E+00 WATTS
                                           EFFICIENCY    =  27.39 PERCENT




                                 - - - - - - FREQUENCY - - - - - -

                                    FREQUENCY= 5.5000E+02 MHZ
                                    WAVELENGTH= 5.4508E-01 METERS




                    APPROXIMATE INTEGRATION EMPLOYED FOR SEGMENTS MORE THAN   1.000 WAVELENGTHS APART

                    THE EXTENDED THIN WIRE KERNEL WILL BE USED



                               - - - STRUCTURE IMPEDANCE LOADING - - -


       LOCATION          RESISTANCE   INDUCTANCE  CAPACITANCE       IMPEDANCE (OHMS)     CONDUCTIVITY    TYPE
    ITAG FROM THRU          OHMS        HENRYS       FARADS        REAL      IMAGINARY    MHOS/METER

       1   11   11      5.0000E+01                                                                     SERIES 



                                  - - - ANTENNA ENVIRONMENT - - -

                                        FINITE GROUND.  SOMMERFELD SOLUTION
                                        RELATIVE DIELECTRIC CONST.= 41.500
                                        CONDUCTIVITY= 9.700E-01 MHOS/METER
                                        COMPLEX DIELECTRIC CONSTANT= 4.15000E+01-3.17015E+01



                                - - - MATRIX TIMING - - -

                        FILL=    0.007 SEC.,  FACTOR=    0.000 SEC.



                                          - - - ANTENNA INPUT PARAMETERS - - -

   TAG   SEG.    VOLTAGE (VOLTS)         CURRENT (AMPS)         IMPEDANCE (OHMS)        ADMITTANCE (MHOS)      POWER
   NO.   NO.    REAL        IMAG.       REAL        IMAG.       REAL        IMAG.       REAL        IMAG.     (WATTS)
     1    11 1.00000E+00 0.00000E+00 1.30915E-03 4.14427E-03 6.93078E+01-2.19403E+02 1.30915E-03 4.14427E-03 6.54573E-04



                             - - - CURRENTS AND LOCATION - - -

                                 DISTANCES IN WAVELENGTHS


  SEG.  TAG    COORD. OF SEG. CENTER     SEG.            - - - CURRENT (AMPS) - - -
  NO.   NO.     X        Y        Z      LENGTH     REAL        IMAG.       MAG.        PHASE
     1    1  -0.1302   0.0000   0.0275  0.01302   1.4968E-04  4.1633E-04  4.4242E-04   70.225
     2    1  -0.1172   0.0000   0.0275  0.01302   3.1414E-04  8.7830E-04  9.3279E-04   70.319
     3    1  -0.1041   0.0000   0.0275  0.01302   4.5745E-04  1.2870E-03  1.3658E-03   70.432
     4    1  -0.0911   0.0000   0.0275  0.01302   5.9178E-04  1.6774E-03  1.7787E-03   70.567
     5    1  -0.0781   0.0000   0.0275  0.01302   7.1767E-04  2.0521E-03  2.1740E-03   70.724
     6    1  -0.0651   0.0000   0.0275  0.01302   8.3483E-04  2.4117E-03  2.5521E-03   70.906
     7    1  -0.0521   0.0000   0.0275  0.01302   9.4275E-04  2.7560E-03  2.9128E-03   71.116
     8    1  -0.0391   0.0000   0.0275  0.01302   1.0412E-03  3.0861E-03  3.2570E-03   71.357
     9    1  -0.0260   0.0000   0.0275  0.01302   1.1305E-03  3.4060E-03  3.5887E-03   71.639
    10    1  -0.0130   0.0000   0.0275  0.01302   1.2183E-03  3.7516E-03  3.9444E-03   72.009
    11    1   0.0000   0.0000   0.0275  0.01302   1.3091E-03  4.1443E-03  4.3461E-03   72.469
    12    1   0.0130   0.0000   0.0275  0.01302   1.2183E-03  3.7516E-03  3.9444E-03   72.009
    13    1   0.0260   0.0000   0.0275  0.01302   1.1305E-03  3.4060E-03  3.5887E-03   71.638
    14    1   0.0391   0.0000   0.0275  0.01302   1.0412E-03  3.0862E-03  3.2571E-03   71.356
    15    1   0.0521   0.0000   0.0275  0.01302   9.4283E-04  2.7560E-03  2.9129E-03   71.114
    16    1   0.0651   0.0000   0.0275  0.01302   8.3493E-04  2.4117E-03  2.5521E-03   70.904
    17    1   0.0781   0.0000   0.0275  0.01302   7.1778E-04  2.0521E-03  2.1741E-03   70.722
    18    1   0.0911   0.0000   0.0275  0.01302   5.9192E-04  1.6774E-03  1.7788E-03   70.563
    19    1   0.1041   0.0000   0.0275  0.01302   4.5761E-04  1.2870E-03  1.3660E-03   70.427
    20    1   0.1172   0.0000   0.0275  0.01302   3.1434E-04  8.7839E-04  9.3294E-04   70.310
    21    1   0.1302   0.0000   0.0275  0.01302   1.4982E-04  4.1639E-04  4.4252E-04   70.211



                                        - - - POWER BUDGET - - -

                                           INPUT POWER   = 6.5457E-04 WATTS
                                           RADIATED POWER= 1.8235E-04 WATTS
                                           STRUCTURE LOSS= 4.7222E-04 WATTS
                                           NETWORK LOSS  = 0.0000E+00 WATTS
                                           EFFICIENCY    =  27.86 PERCENT




                                 - - - - - - FREQUENCY - - - - - -

                                    FREQUENCY= 5.6000E+02 MHZ
                                    WAVELENGTH= 5.3534E-01 METERS




                    APPROXIMATE INTEGRATION EMPLOYED FOR SEGMENTS MORE THAN   1.000 WAVELENGTHS APART

                    THE EXTENDED THIN WIRE KERNEL WILL BE USED



                               - - - STRUCTURE IMPEDANCE LOADING - - -


       LOCATION          RESISTANCE   INDUCTANCE  CAPACITANCE       IMPEDANCE (OHMS)     CONDUCTIVITY    TYPE
    ITAG FROM THRU          OHMS        HENRYS       FARADS        REAL      IMAGINARY    MHOS/METER

       1   11   11      5.0000E+01                                                                     SERIES 



                                  - - - ANTENNA ENVIRONMENT - - -

                                        FINITE GROUND.  SOMMERFELD SOLUTION
                                        RELATIVE DIELECTRIC CONST.= 41.500
                                        CONDUCTIVITY= 9.700E-01 MHOS/METER
                                        COMPLEX DIELECTRIC CONSTANT= 4.15000E+01-3.11354E+01



                                - - - MATRIX TIMING - - -

                        FILL=    0.006 SEC.,  FACTOR=    0.000 SEC.



                                          - - - ANTENNA INPUT PARAMETERS - - -

   TAG   SEG.    VOLTAGE (VOLTS)         CURRENT (AMPS)         IMPEDANCE (OHMS)        ADMITTANCE (MHOS)      POWER
   NO.   NO.    REAL        IMAG.       REAL        IMAG.       REAL        IMAG.       REAL        IMAG.     (WATTS)
     1    11 1.00000E+00 0.00000E+00 1.40530E-03 4.26247E-03 6.97645E+01-2.11605E+02 1.40530E-03 4.26247E-03 7.02651E-04



                             - - - CURRENTS AND LOCATION - - -

                                 DISTANCES IN WAVELENGTHS


  SEG.  TAG    COORD. OF SEG. CENTER     SEG.            - - - CURRENT (AMPS) - - -
  NO.   NO.     X        Y        Z      LENGTH     REAL        IMAG.       MAG.        PHASE
     1    1  -0.1325   0.0000   0.0280  0.01325   1.6171E-04  4.3079E-04  4.6014E-04   69.425
     2    1  -0.1193   0.0000   0.0280  0.01325   3.3933E-04  9.0871E-04  9.7000E-04   69.523
     3    1  -0.1060   0.0000   0.0280  0.01325   4.9403E-04  1.3312E-03  1.4200E-03   69.640
     4    1  -0.0928   0.0000   0.0280  0.01325   6.3892E-04  1.7346E-03  1.8485E-03   69.779
     5    1  -0.0795   0.0000   0.0280  0.01325   7.7453E-04  2.1213E-03  2.2583E-03   69.942
     6    1  -0.0663   0.0000   0.0280  0.01325   9.0054E-04  2.4918E-03  2.6496E-03   70.130
     7    1  -0.0530   0.0000   0.0280  0.01325   1.0164E-03  2.8460E-03  3.0221E-03   70.347
     8    1  -0.0398   0.0000   0.0280  0.01325   1.1217E-03  3.1848E-03  3.3765E-03   70.598
     9    1  -0.0265   0.0000   0.0280  0.01325   1.2169E-03  3.5120E-03  3.7168E-03   70.890
    10    1  -0.0133   0.0000   0.0280  0.01325   1.3098E-03  3.8640E-03  4.0800E-03   71.274
    11    1   0.0000   0.0000   0.0280  0.01325   1.4053E-03  4.2625E-03  4.4882E-03   71.753
    12    1   0.0133   0.0000   0.0280  0.01325   1.3099E-03  3.8640E-03  4.0800E-03   71.274
    13    1   0.0265   0.0000   0.0280  0.01325   1.2169E-03  3.5120E-03  3.7169E-03   70.889
    14    1   0.0398   0.0000   0.0280  0.01325   1.1217E-03  3.1848E-03  3.3766E-03   70.597
    15    1   0.0530   0.0000   0.0280  0.01325   1.0165E-03  2.8460E-03  3.0221E-03   70.346
    16    1   0.0663   0.0000   0.0280  0.01325   9.0065E-04  2.4919E-03  2.6496E-03   70.128
    17    1   0.0795   0.0000   0.0280  0.01325   7.7465E-04  2.1213E-03  2.2584E-03   69.939
    18    1   0.0928   0.0000   0.0280  0.01325   6.3906E-04  1.7346E-03  1.8486E-03   69.776
    19    1   0.1060   0.0000   0.0280  0.01325   4.9420E-04  1.3313E-03  1.4201E-03   69.634
    20    1   0.1193   0.0000   0.0280  0.01325   3.3955E-04  9.0880E-04  9.7016E-04   69.513
    21    1   0.1325   0.0000   0.0280  0.01325   1.6185E-04  4.3086E-04  4.6025E-04   69.411



                                        - - - POWER BUDGET - - -

                                           INPUT POWER   = 7.0265E-04 WATTS
                                           RADIATED POWER= 1.9906E-04 WATTS
                                           STRUCTURE LOSS= 5.0359E-04 WATTS
                                           NETWORK LOSS  = 0.0000E+00 WATTS
                                           EFFICIENCY    =  28.33 PERCENT




                                 - - - - - - FREQUENCY - - - - - -

                                    FREQUENCY= 5.7000E+02 MHZ
                                    WAVELENGTH= 5.2595E-01 METERS




                    APPROXIMATE INTEGRATION EMPLOYED FOR SEGMENTS MORE THAN   1.000 WAVELENGTHS APART

                    THE EXTENDED THIN WIRE KERNEL WILL BE USED



                               - - - STRUCTURE IMPEDANCE LOADING - - -


       LOCATION          RESISTANCE   INDUCTANCE  CAPACITANCE       IMPEDANCE (OHMS)     CONDUCTIVITY    TYPE
    ITAG FROM THRU          OHMS        HENRYS       FARADS        REAL      IMAGINARY    MHOS/METER

       1   11   11      5.0000E+01                                                                     SERIES 



                                  - - - ANTENNA ENVIRONMENT - - -

                                        FINITE GROUND.  SOMMERFELD SOLUTION
                                        RELATIVE DIELECTRIC CONST.= 41.500
                                        CONDUCTIVITY= 9.700E-01 MHOS/METER
                                        COMPLEX DIELECTRIC CONSTANT= 4.15000E+01-3.05892E+01



                                - - - MATRIX TIMING - - -

                        FILL=    0.006 SEC.,  FACTOR=    0.000 SEC.



                                          - - - ANTENNA INPUT PARAMETERS - - -

   TAG   SEG.    VOLTAGE (VOLTS)         CURRENT (AMPS)         IMPEDANCE (OHMS)        ADMITTANCE (MHOS)      POWER
   NO.   NO.    REAL        IMAG.       REAL        IMAG.       REAL        IMAG.       REAL        IMAG.     (WATTS)
     1    11 1.00000E+00 0.00000E+00 1.50901E-03 4.38271E-03 7.02347E+01-2.03987E+02 1.50901E-03 4.38271E-03 7.54506E-04



                             - - - CURRENTS AND LOCATION - - -

                                 DISTANCES IN WAVELENGTHS


  SEG.  TAG    COORD. OF SEG. CENTER     SEG.            - - - CURRENT (AMPS) - - -
  NO.   NO.     X        Y        Z      LENGTH     REAL        IMAG.       MAG.        PHASE
     1    1  -0.1349   0.0000   0.0285  0.01349   1.7483E-04  4.4568E-04  4.7874E-04   68.581
     2    1  -0.1214   0.0000   0.0285  0.01349   3.6683E-04  9.4000E-04  1.0090E-03   68.682
     3    1  -0.1079   0.0000   0.0285  0.01349   5.3384E-04  1.3768E-03  1.4766E-03   68.806
     4    1  -0.0944   0.0000   0.0285  0.01349   6.9015E-04  1.7933E-03  1.9215E-03   68.951
     5    1  -0.0809   0.0000   0.0285  0.01349   8.3627E-04  2.1923E-03  2.3464E-03   69.120
     6    1  -0.0675   0.0000   0.0285  0.01349   9.7184E-04  2.5740E-03  2.7514E-03   69.316
     7    1  -0.0540   0.0000   0.0285  0.01349   1.0962E-03  2.9382E-03  3.1360E-03   69.541
     8    1  -0.0405   0.0000   0.0285  0.01349   1.2089E-03  3.2857E-03  3.5010E-03   69.800
     9    1  -0.0270   0.0000   0.0285  0.01349   1.3103E-03  3.6203E-03  3.8501E-03   70.103
    10    1  -0.0135   0.0000   0.0285  0.01349   1.4087E-03  3.9787E-03  4.2207E-03   70.503
    11    1   0.0000   0.0000   0.0285  0.01349   1.5090E-03  4.3827E-03  4.6352E-03   71.001
    12    1   0.0135   0.0000   0.0285  0.01349   1.4087E-03  3.9787E-03  4.2207E-03   70.503
    13    1   0.0270   0.0000   0.0285  0.01349   1.3103E-03  3.6203E-03  3.8501E-03   70.103
    14    1   0.0405   0.0000   0.0285  0.01349   1.2089E-03  3.2857E-03  3.5010E-03   69.800
    15    1   0.0540   0.0000   0.0285  0.01349   1.0962E-03  2.9382E-03  3.1361E-03   69.540
    16    1   0.0675   0.0000   0.0285  0.01349   9.7188E-04  2.5740E-03  2.7514E-03   69.315
    17    1   0.0809   0.0000   0.0285  0.01349   8.3631E-04  2.1923E-03  2.3464E-03   69.119
    18    1   0.0944   0.0000   0.0285  0.01349   6.9020E-04  1.7933E-03  1.9216E-03   68.950
    19    1   0.1079   0.0000   0.0285  0.01349   5.3390E-04  1.3768E-03  1.4767E-03   68.804
    20    1   0.1214   0.0000   0.0285  0.01349   3.6690E-04  9.4003E-04  1.0091E-03   68.679
    21    1   0.1349   0.0000   0.0285  0.01349   1.7491E-04  4.4571E-04  4.7880E-04   68.573



                                        - - - POWER BUDGET - - -

                                           INPUT POWER   = 7.5451E-04 WATTS
                                           RADIATED POWER= 2.1737E-04 WATTS
                                           STRUCTURE LOSS= 5.3713E-04 WATTS
                                           NETWORK LOSS  = 0.0000E+00 WATTS
                                           EFFICIENCY    =  28.81 PERCENT




                                 - - - - - - FREQUENCY - - - - - -

                                    FREQUENCY= 5.8000E+02 MHZ
                                    WAVELENGTH= 5.1688E-01 METERS




                    APPROXIMATE INTEGRATION EMPLOYED FOR SEGMENTS MORE THAN   1.000 WAVELENGTHS APART

                    THE EXTENDED THIN WIRE KERNEL WILL BE USED



                               - - - STRUCTURE IMPEDANCE LOADING - - -


       LOCATION          RESISTANCE   INDUCTANCE  CAPACITANCE       IMPEDANCE (OHMS)     CONDUCTIVITY    TYPE
    ITAG FROM THRU          OHMS        HENRYS       FARADS        REAL      IMAGINARY    MHOS/METER

       1   11   11      5.0000E+01                                                                     SERIES 



                                  - - - ANTENNA ENVIRONMENT - - -

                                        FINITE GROUND.  SOMMERFELD SOLUTION
                                        RELATIVE DIELECTRIC CONST.= 41.500
                                        CONDUCTIVITY= 9.700E-01 MHOS/METER
                                        COMPLEX DIELECTRIC CONSTANT= 4.15000E+01-3.00618E+01



                                - - - MATRIX TIMING - - -

                        FILL=    0.006 SEC.,  FACTOR=    0.000 SEC.



                                          - - - ANTENNA INPUT PARAMETERS - - -

   TAG   SEG.    VOLTAGE (VOLTS)         CURRENT (AMPS)         IMPEDANCE (OHMS)        ADMITTANCE (MHOS)      POWER
   NO.   NO.    REAL        IMAG.       REAL        IMAG.       REAL        IMAG.       REAL        IMAG.     (WATTS)
     1    11 1.00000E+00 0.00000E+00 1.62067E-03 4.50481E-03 7.07102E+01-1.96546E+02 1.62067E-03 4.50481E-03 8.10337E-04



                             - - - CURRENTS AND LOCATION - - -

                                 DISTANCES IN WAVELENGTHS


  SEG.  TAG    COORD. OF SEG. CENTER     SEG.            - - - CURRENT (AMPS) - - -
  NO.   NO.     X        Y        Z      LENGTH     REAL        IMAG.       MAG.        PHASE
     1    1  -0.1373   0.0000   0.0290  0.01373   1.8897E-04  4.6091E-04  4.9814E-04   67.706
     2    1  -0.1235   0.0000   0.0290  0.01373   3.9646E-04  9.7200E-04  1.0497E-03   67.810
     3    1  -0.1098   0.0000   0.0290  0.01373   5.7685E-04  1.4233E-03  1.5358E-03   67.938
     4    1  -0.0961   0.0000   0.0290  0.01373   7.4552E-04  1.8535E-03  1.9978E-03   68.089
     5    1  -0.0824   0.0000   0.0290  0.01373   9.0303E-04  2.2650E-03  2.4384E-03   68.263
     6    1  -0.0686   0.0000   0.0290  0.01373   1.0489E-03  2.6581E-03  2.8576E-03   68.465
     7    1  -0.0549   0.0000   0.0290  0.01373   1.1824E-03  3.0324E-03  3.2548E-03   68.698
     8    1  -0.0412   0.0000   0.0290  0.01373   1.3031E-03  3.3887E-03  3.6306E-03   68.967
     9    1  -0.0275   0.0000   0.0290  0.01373   1.4112E-03  3.7307E-03  3.9887E-03   69.280
    10    1  -0.0137   0.0000   0.0290  0.01373   1.5154E-03  4.0954E-03  4.3668E-03   69.695
    11    1   0.0000   0.0000   0.0290  0.01373   1.6207E-03  4.5048E-03  4.7875E-03   70.213
    12    1   0.0137   0.0000   0.0290  0.01373   1.5154E-03  4.0954E-03  4.3668E-03   69.695
    13    1   0.0275   0.0000   0.0290  0.01373   1.4112E-03  3.7307E-03  3.9887E-03   69.280
    14    1   0.0412   0.0000   0.0290  0.01373   1.3031E-03  3.3887E-03  3.6306E-03   68.966
    15    1   0.0549   0.0000   0.0290  0.01373   1.1825E-03  3.0325E-03  3.2548E-03   68.697
    16    1   0.0686   0.0000   0.0290  0.01373   1.0490E-03  2.6581E-03  2.8576E-03   68.465
    17    1   0.0824   0.0000   0.0290  0.01373   9.0308E-04  2.2650E-03  2.4384E-03   68.262
    18    1   0.0961   0.0000   0.0290  0.01373   7.4558E-04  1.8535E-03  1.9978E-03   68.087
    19    1   0.1098   0.0000   0.0290  0.01373   5.7691E-04  1.4234E-03  1.5358E-03   67.937
    20    1   0.1235   0.0000   0.0290  0.01373   3.9654E-04  9.7203E-04  1.0498E-03   67.807
    21    1   0.1373   0.0000   0.0290  0.01373   1.8907E-04  4.6094E-04  4.9821E-04   67.698



                                        - - - POWER BUDGET - - -

                                           INPUT POWER   = 8.1034E-04 WATTS
                                           RADIATED POWER= 2.3734E-04 WATTS
                                           STRUCTURE LOSS= 5.7300E-04 WATTS
                                           NETWORK LOSS  = 0.0000E+00 WATTS
                                           EFFICIENCY    =  29.29 PERCENT




                                 - - - - - - FREQUENCY - - - - - -

                                    FREQUENCY= 5.9000E+02 MHZ
                                    WAVELENGTH= 5.0812E-01 METERS




                    APPROXIMATE INTEGRATION EMPLOYED FOR SEGMENTS MORE THAN   1.000 WAVELENGTHS APART

                    THE EXTENDED THIN WIRE KERNEL WILL BE USED



                               - - - STRUCTURE IMPEDANCE LOADING - - -


       LOCATION          RESISTANCE   INDUCTANCE  CAPACITANCE       IMPEDANCE (OHMS)     CONDUCTIVITY    TYPE
    ITAG FROM THRU          OHMS        HENRYS       FARADS        REAL      IMAGINARY    MHOS/METER

       1   11   11      5.0000E+01                                                                     SERIES 



                                  - - - ANTENNA ENVIRONMENT - - -

                                        FINITE GROUND.  SOMMERFELD SOLUTION
                                        RELATIVE DIELECTRIC CONST.= 41.500
                                        CONDUCTIVITY= 9.700E-01 MHOS/METER
                                        COMPLEX DIELECTRIC CONSTANT= 4.15000E+01-2.95523E+01



                                - - - MATRIX TIMING - - -

                        FILL=    0.006 SEC.,  FACTOR=    0.000 SEC.



                                          - - - ANTENNA INPUT PARAMETERS - - -

   TAG   SEG.    VOLTAGE (VOLTS)         CURRENT (AMPS)         IMPEDANCE (OHMS)        ADMITTANCE (MHOS)      POWER
   NO.   NO.    REAL        IMAG.       REAL        IMAG.       REAL        IMAG.       REAL        IMAG.     (WATTS)
     1    11 1.00000E+00 0.00000E+00 1.74104E-03 4.62871E-03 7.11902E+01-1.89266E+02 1.74104E-03 4.62871E-03 8.70520E-04



                             - - - CURRENTS AND LOCATION - - -

                                 DISTANCES IN WAVELENGTHS


  SEG.  TAG    COORD. OF SEG. CENTER     SEG.            - - - CURRENT (AMPS) - - -
  NO.   NO.     X        Y        Z      LENGTH     REAL        IMAG.       MAG.        PHASE
     1    1  -0.1396   0.0000   0.0295  0.01396   2.0432E-04  4.7651E-04  5.1846E-04   66.791
     2    1  -0.1257   0.0000   0.0295  0.01396   4.2860E-04  1.0048E-03  1.0924E-03   66.899
     3    1  -0.1117   0.0000   0.0295  0.01396   6.2348E-04  1.4710E-03  1.5977E-03   67.031
     4    1  -0.0977   0.0000   0.0295  0.01396   8.0556E-04  1.9150E-03  2.0776E-03   67.186
     5    1  -0.0838   0.0000   0.0295  0.01396   9.7537E-04  2.3393E-03  2.5345E-03   67.367
     6    1  -0.0698   0.0000   0.0295  0.01396   1.1324E-03  2.7441E-03  2.9685E-03   67.575
     7    1  -0.0559   0.0000   0.0295  0.01396   1.2758E-03  3.1287E-03  3.3788E-03   67.816
     8    1  -0.0419   0.0000   0.0295  0.01396   1.4050E-03  3.4939E-03  3.7658E-03   68.094
     9    1  -0.0279   0.0000   0.0295  0.01396   1.5202E-03  3.8433E-03  4.1330E-03   68.418
    10    1  -0.0140   0.0000   0.0295  0.01396   1.6305E-03  4.2142E-03  4.5186E-03   68.848
    11    1   0.0000   0.0000   0.0295  0.01396   1.7410E-03  4.6287E-03  4.9453E-03   69.387
    12    1   0.0140   0.0000   0.0295  0.01396   1.6305E-03  4.2142E-03  4.5186E-03   68.848
    13    1   0.0279   0.0000   0.0295  0.01396   1.5203E-03  3.8433E-03  4.1330E-03   68.418
    14    1   0.0419   0.0000   0.0295  0.01396   1.4050E-03  3.4939E-03  3.7658E-03   68.093
    15    1   0.0559   0.0000   0.0295  0.01396   1.2758E-03  3.1287E-03  3.3789E-03   67.815
    16    1   0.0698   0.0000   0.0295  0.01396   1.1325E-03  2.7441E-03  2.9686E-03   67.574
    17    1   0.0838   0.0000   0.0295  0.01396   9.7543E-04  2.3394E-03  2.5346E-03   67.366
    18    1   0.0977   0.0000   0.0295  0.01396   8.0562E-04  1.9151E-03  2.0776E-03   67.185
    19    1   0.1117   0.0000   0.0295  0.01396   6.2354E-04  1.4711E-03  1.5978E-03   67.029
    20    1   0.1257   0.0000   0.0295  0.01396   4.2868E-04  1.0048E-03  1.0924E-03   66.895
    21    1   0.1396   0.0000   0.0295  0.01396   2.0442E-04  4.7654E-04  5.1853E-04   66.783



                                        - - - POWER BUDGET - - -

                                           INPUT POWER   = 8.7052E-04 WATTS
                                           RADIATED POWER= 2.5912E-04 WATTS
                                           STRUCTURE LOSS= 6.1140E-04 WATTS
                                           NETWORK LOSS  = 0.0000E+00 WATTS
                                           EFFICIENCY    =  29.77 PERCENT




                                 - - - - - - FREQUENCY - - - - - -

                                    FREQUENCY= 6.0000E+02 MHZ
                                    WAVELENGTH= 4.9965E-01 METERS




                    APPROXIMATE INTEGRATION EMPLOYED FOR SEGMENTS MORE THAN   1.000 WAVELENGTHS APART

                    THE EXTENDED THIN WIRE KERNEL WILL BE USED



                               - - - STRUCTURE IMPEDANCE LOADING - - -


       LOCATION          RESISTANCE   INDUCTANCE  CAPACITANCE       IMPEDANCE (OHMS)     CONDUCTIVITY    TYPE
    ITAG FROM THRU          OHMS        HENRYS       FARADS        REAL      IMAGINARY    MHOS/METER

       1   11   11      5.0000E+01                                                                     SERIES 



                                  - - - ANTENNA ENVIRONMENT - - -

                                        FINITE GROUND.  SOMMERFELD SOLUTION
                                        RELATIVE DIELECTRIC CONST.= 41.500
                                        CONDUCTIVITY= 9.700E-01 MHOS/METER
                                        COMPLEX DIELECTRIC CONSTANT= 4.15000E+01-2.90598E+01



                                - - - MATRIX TIMING - - -

                        FILL=    0.006 SEC.,  FACTOR=    0.000 SEC.



                                          - - - ANTENNA INPUT PARAMETERS - - -

   TAG   SEG.    VOLTAGE (VOLTS)         CURRENT (AMPS)         IMPEDANCE (OHMS)        ADMITTANCE (MHOS)      POWER
   NO.   NO.    REAL        IMAG.       REAL        IMAG.       REAL        IMAG.       REAL        IMAG.     (WATTS)
     1    11 1.00000E+00 0.00000E+00 1.87096E-03 4.75414E-03 7.16779E+01-1.82135E+02 1.87096E-03 4.75414E-03 9.35479E-04



                             - - - CURRENTS AND LOCATION - - -

                                 DISTANCES IN WAVELENGTHS


  SEG.  TAG    COORD. OF SEG. CENTER     SEG.            - - - CURRENT (AMPS) - - -
  NO.   NO.     X        Y        Z      LENGTH     REAL        IMAG.       MAG.        PHASE
     1    1  -0.1420   0.0000   0.0300  0.01420   2.2108E-04  4.9249E-04  5.3984E-04   65.824
     2    1  -0.1278   0.0000   0.0300  0.01420   4.6359E-04  1.0383E-03  1.1371E-03   65.940
     3    1  -0.1136   0.0000   0.0300  0.01420   6.7418E-04  1.5198E-03  1.6626E-03   66.079
     4    1  -0.0994   0.0000   0.0300  0.01420   8.7078E-04  1.9780E-03  2.1612E-03   66.239
     5    1  -0.0852   0.0000   0.0300  0.01420   1.0539E-03  2.4153E-03  2.6352E-03   66.426
     6    1  -0.0710   0.0000   0.0300  0.01420   1.2230E-03  2.8318E-03  3.0846E-03   66.641
     7    1  -0.0568   0.0000   0.0300  0.01420   1.3771E-03  3.2269E-03  3.5084E-03   66.890
     8    1  -0.0426   0.0000   0.0300  0.01420   1.5154E-03  3.6010E-03  3.9069E-03   67.177
     9    1  -0.0284   0.0000   0.0300  0.01420   1.6383E-03  3.9578E-03  4.2834E-03   67.513
    10    1  -0.0142   0.0000   0.0300  0.01420   1.7550E-03  4.3347E-03  4.6765E-03   67.959
    11    1   0.0000   0.0000   0.0300  0.01420   1.8710E-03  4.7541E-03  5.1090E-03   68.518
    12    1   0.0142   0.0000   0.0300  0.01420   1.7550E-03  4.3347E-03  4.6765E-03   67.959
    13    1   0.0284   0.0000   0.0300  0.01420   1.6383E-03  3.9578E-03  4.2834E-03   67.513
    14    1   0.0426   0.0000   0.0300  0.01420   1.5154E-03  3.6010E-03  3.9069E-03   67.177
    15    1   0.0568   0.0000   0.0300  0.01420   1.3771E-03  3.2269E-03  3.5084E-03   66.890
    16    1   0.0710   0.0000   0.0300  0.01420   1.2230E-03  2.8318E-03  3.0846E-03   66.641
    17    1   0.0852   0.0000   0.0300  0.01420   1.0539E-03  2.4153E-03  2.6352E-03   66.426
    18    1   0.0994   0.0000   0.0300  0.01420   8.7078E-04  1.9780E-03  2.1612E-03   66.239
    19    1   0.1136   0.0000   0.0300  0.01420   6.7418E-04  1.5198E-03  1.6626E-03   66.079
    20    1   0.1278   0.0000   0.0300  0.01420   4.6359E-04  1.0383E-03  1.1371E-03   65.940
    21    1   0.1420   0.0000   0.0300  0.01420   2.2108E-04  4.9249E-04  5.3984E-04   65.824



                                        - - - POWER BUDGET - - -

                                           INPUT POWER   = 9.3548E-04 WATTS
                                           RADIATED POWER= 2.8292E-04 WATTS
                                           STRUCTURE LOSS= 6.5256E-04 WATTS
                                           NETWORK LOSS  = 0.0000E+00 WATTS
                                           EFFICIENCY    =  30.24 PERCENT




                                 - - - - - - FREQUENCY - - - - - -

                                    FREQUENCY= 6.1000E+02 MHZ
                                    WAVELENGTH= 4.9146E-01 METERS




                    APPROXIMATE INTEGRATION EMPLOYED FOR SEGMENTS MORE THAN   1.000 WAVELENGTHS APART

                    THE EXTENDED THIN WIRE KERNEL WILL BE USED



                               - - - STRUCTURE IMPEDANCE LOADING - - -


       LOCATION          RESISTANCE   INDUCTANCE  CAPACITANCE       IMPEDANCE (OHMS)     CONDUCTIVITY    TYPE
    ITAG FROM THRU          OHMS        HENRYS       FARADS        REAL      IMAGINARY    MHOS/METER

       1   11   11      5.0000E+01                                                                     SERIES 



                                  - - - ANTENNA ENVIRONMENT - - -

                                        FINITE GROUND.  SOMMERFELD SOLUTION
                                        RELATIVE DIELECTRIC CONST.= 41.500
                                        CONDUCTIVITY= 9.700E-01 MHOS/METER
                                        COMPLEX DIELECTRIC CONSTANT= 4.15000E+01-2.85834E+01



                                - - - MATRIX TIMING - - -

                        FILL=    0.006 SEC.,  FACTOR=    0.000 SEC.



                                          - - - ANTENNA INPUT PARAMETERS - - -

   TAG   SEG.    VOLTAGE (VOLTS)         CURRENT (AMPS)         IMPEDANCE (OHMS)        ADMITTANCE (MHOS)      POWER
   NO.   NO.    REAL        IMAG.       REAL        IMAG.       REAL        IMAG.       REAL        IMAG.     (WATTS)
     1    11 1.00000E+00 0.00000E+00 2.01077E-03 4.88090E-03 7.21574E+01-1.75154E+02 2.01077E-03 4.88090E-03 1.00538E-03



                             - - - CURRENTS AND LOCATION - - -

                                 DISTANCES IN WAVELENGTHS


  SEG.  TAG    COORD. OF SEG. CENTER     SEG.            - - - CURRENT (AMPS) - - -
  NO.   NO.     X        Y        Z      LENGTH     REAL        IMAG.       MAG.        PHASE
     1    1  -0.1444   0.0000   0.0305  0.01444   2.3892E-04  5.0871E-04  5.6202E-04   64.842
     2    1  -0.1299   0.0000   0.0305  0.01444   5.0107E-04  1.0724E-03  1.1837E-03   64.957
     3    1  -0.1155   0.0000   0.0305  0.01444   7.2873E-04  1.5695E-03  1.7304E-03   65.094
     4    1  -0.1011   0.0000   0.0305  0.01444   9.4109E-04  2.0421E-03  2.2485E-03   65.257
     5    1  -0.0866   0.0000   0.0305  0.01444   1.1387E-03  2.4926E-03  2.7404E-03   65.448
     6    1  -0.0722   0.0000   0.0305  0.01444   1.3208E-03  2.9211E-03  3.2059E-03   65.670
     7    1  -0.0577   0.0000   0.0305  0.01444   1.4864E-03  3.3268E-03  3.6437E-03   65.925
     8    1  -0.0433   0.0000   0.0305  0.01444   1.6346E-03  3.7099E-03  4.0540E-03   66.222
     9    1  -0.0289   0.0000   0.0305  0.01444   1.7656E-03  4.0740E-03  4.4402E-03   66.569
    10    1  -0.0144   0.0000   0.0305  0.01444   1.8891E-03  4.4569E-03  4.8408E-03   67.030
    11    1   0.0000   0.0000   0.0305  0.01444   2.0108E-03  4.8809E-03  5.2789E-03   67.610
    12    1   0.0144   0.0000   0.0305  0.01444   1.8892E-03  4.4569E-03  4.8408E-03   67.029
    13    1   0.0289   0.0000   0.0305  0.01444   1.7657E-03  4.0740E-03  4.4402E-03   66.568
    14    1   0.0433   0.0000   0.0305  0.01444   1.6347E-03  3.7099E-03  4.0541E-03   66.221
    15    1   0.0577   0.0000   0.0305  0.01444   1.4865E-03  3.3268E-03  3.6438E-03   65.924
    16    1   0.0722   0.0000   0.0305  0.01444   1.3210E-03  2.9212E-03  3.2060E-03   65.667
    17    1   0.0866   0.0000   0.0305  0.01444   1.1389E-03  2.4927E-03  2.7405E-03   65.445
    18    1   0.1011   0.0000   0.0305  0.01444   9.4132E-04  2.0421E-03  2.2486E-03   65.253
    19    1   0.1155   0.0000   0.0305  0.01444   7.2900E-04  1.5696E-03  1.7306E-03   65.087
    20    1   0.1299   0.0000   0.0305  0.01444   5.0138E-04  1.0725E-03  1.1839E-03   64.945
    21    1   0.1444   0.0000   0.0305  0.01444   2.3914E-04  5.0877E-04  5.6217E-04   64.825



                                        - - - POWER BUDGET - - -

                                           INPUT POWER   = 1.0054E-03 WATTS
                                           RADIATED POWER= 3.0872E-04 WATTS
                                           STRUCTURE LOSS= 6.9666E-04 WATTS
                                           NETWORK LOSS  = 0.0000E+00 WATTS
                                           EFFICIENCY    =  30.71 PERCENT




                                 - - - - - - FREQUENCY - - - - - -

                                    FREQUENCY= 6.2000E+02 MHZ
                                    WAVELENGTH= 4.8354E-01 METERS




                    APPROXIMATE INTEGRATION EMPLOYED FOR SEGMENTS MORE THAN   1.000 WAVELENGTHS APART

                    THE EXTENDED THIN WIRE KERNEL WILL BE USED



                               - - - STRUCTURE IMPEDANCE LOADING - - -


       LOCATION          RESISTANCE   INDUCTANCE  CAPACITANCE       IMPEDANCE (OHMS)     CONDUCTIVITY    TYPE
    ITAG FROM THRU          OHMS        HENRYS       FARADS        REAL      IMAGINARY    MHOS/METER

       1   11   11      5.0000E+01                                                                     SERIES 



                                  - - - ANTENNA ENVIRONMENT - - -

                                        FINITE GROUND.  SOMMERFELD SOLUTION
                                        RELATIVE DIELECTRIC CONST.= 41.500
                                        CONDUCTIVITY= 9.700E-01 MHOS/METER
                                        COMPLEX DIELECTRIC CONSTANT= 4.15000E+01-2.81223E+01



                                - - - MATRIX TIMING - - -

                        FILL=    0.006 SEC.,  FACTOR=    0.000 SEC.



                                          - - - ANTENNA INPUT PARAMETERS - - -

   TAG   SEG.    VOLTAGE (VOLTS)         CURRENT (AMPS)         IMPEDANCE (OHMS)        ADMITTANCE (MHOS)      POWER
   NO.   NO.    REAL        IMAG.       REAL        IMAG.       REAL        IMAG.       REAL        IMAG.     (WATTS)
     1    11 1.00000E+00 0.00000E+00 2.16211E-03 5.00835E-03 7.26556E+01-1.68301E+02 2.16211E-03 5.00835E-03 1.08105E-03



                             - - - CURRENTS AND LOCATION - - -

                                 DISTANCES IN WAVELENGTHS


  SEG.  TAG    COORD. OF SEG. CENTER     SEG.            - - - CURRENT (AMPS) - - -
  NO.   NO.     X        Y        Z      LENGTH     REAL        IMAG.       MAG.        PHASE
     1    1  -0.1467   0.0000   0.0310  0.01467   2.5857E-04  5.2524E-04  5.8543E-04   63.790
     2    1  -0.1321   0.0000   0.0310  0.01467   5.4220E-04  1.1072E-03  1.2328E-03   63.909
     3    1  -0.1174   0.0000   0.0310  0.01467   7.8840E-04  1.6200E-03  1.8017E-03   64.050
     4    1  -0.1027   0.0000   0.0310  0.01467   1.0179E-03  2.1072E-03  2.3402E-03   64.218
     5    1  -0.0880   0.0000   0.0310  0.01467   1.2311E-03  2.5712E-03  2.8507E-03   64.414
     6    1  -0.0734   0.0000   0.0310  0.01467   1.4273E-03  3.0117E-03  3.3328E-03   64.643
     7    1  -0.0587   0.0000   0.0310  0.01467   1.6053E-03  3.4280E-03  3.7852E-03   64.906
     8    1  -0.0440   0.0000   0.0310  0.01467   1.7641E-03  3.8201E-03  4.2077E-03   65.212
     9    1  -0.0293   0.0000   0.0310  0.01467   1.9039E-03  4.1915E-03  4.6036E-03   65.571
    10    1  -0.0147   0.0000   0.0310  0.01467   2.0346E-03  4.5801E-03  5.0117E-03   66.048
    11    1   0.0000   0.0000   0.0310  0.01467   2.1621E-03  5.0084E-03  5.4551E-03   66.650
    12    1   0.0147   0.0000   0.0310  0.01467   2.0346E-03  4.5801E-03  5.0117E-03   66.048
    13    1   0.0293   0.0000   0.0310  0.01467   1.9040E-03  4.1915E-03  4.6037E-03   65.570
    14    1   0.0440   0.0000   0.0310  0.01467   1.7642E-03  3.8201E-03  4.2078E-03   65.211
    15    1   0.0587   0.0000   0.0310  0.01467   1.6054E-03  3.4280E-03  3.7853E-03   64.905
    16    1   0.0734   0.0000   0.0310  0.01467   1.4275E-03  3.0118E-03  3.3330E-03   64.640
    17    1   0.0880   0.0000   0.0310  0.01467   1.2313E-03  2.5712E-03  2.8508E-03   64.411
    18    1   0.1027   0.0000   0.0310  0.01467   1.0181E-03  2.1073E-03  2.3403E-03   64.213
    19    1   0.1174   0.0000   0.0310  0.01467   7.8868E-04  1.6201E-03  1.8019E-03   64.043
    20    1   0.1321   0.0000   0.0310  0.01467   5.4254E-04  1.1073E-03  1.2330E-03   63.896
    21    1   0.1467   0.0000   0.0310  0.01467   2.5880E-04  5.2530E-04  5.8559E-04   63.772



                                        - - - POWER BUDGET - - -

                                           INPUT POWER   = 1.0811E-03 WATTS
                                           RADIATED POWER= 3.3710E-04 WATTS
                                           STRUCTURE LOSS= 7.4396E-04 WATTS
                                           NETWORK LOSS  = 0.0000E+00 WATTS
                                           EFFICIENCY    =  31.18 PERCENT




                                 - - - - - - FREQUENCY - - - - - -

                                    FREQUENCY= 6.3000E+02 MHZ
                                    WAVELENGTH= 4.7586E-01 METERS




                    APPROXIMATE INTEGRATION EMPLOYED FOR SEGMENTS MORE THAN   1.000 WAVELENGTHS APART

                    THE EXTENDED THIN WIRE KERNEL WILL BE USED



                               - - - STRUCTURE IMPEDANCE LOADING - - -


       LOCATION          RESISTANCE   INDUCTANCE  CAPACITANCE       IMPEDANCE (OHMS)     CONDUCTIVITY    TYPE
    ITAG FROM THRU          OHMS        HENRYS       FARADS        REAL      IMAGINARY    MHOS/METER

       1   11   11      5.0000E+01                                                                     SERIES 



                                  - - - ANTENNA ENVIRONMENT - - -

                                        FINITE GROUND.  SOMMERFELD SOLUTION
                                        RELATIVE DIELECTRIC CONST.= 41.500
                                        CONDUCTIVITY= 9.700E-01 MHOS/METER
                                        COMPLEX DIELECTRIC CONSTANT= 4.15000E+01-2.76760E+01



                                - - - MATRIX TIMING - - -

                        FILL=    0.006 SEC.,  FACTOR=    0.000 SEC.



                                          - - - ANTENNA INPUT PARAMETERS - - -

   TAG   SEG.    VOLTAGE (VOLTS)         CURRENT (AMPS)         IMPEDANCE (OHMS)        ADMITTANCE (MHOS)      POWER
   NO.   NO.    REAL        IMAG.       REAL        IMAG.       REAL        IMAG.       REAL        IMAG.     (WATTS)
     1    11 1.00000E+00 0.00000E+00 2.32568E-03 5.13598E-03 7.31643E+01-1.61575E+02 2.32568E-03 5.13598E-03 1.16284E-03



                             - - - CURRENTS AND LOCATION - - -

                                 DISTANCES IN WAVELENGTHS


  SEG.  TAG    COORD. OF SEG. CENTER     SEG.            - - - CURRENT (AMPS) - - -
  NO.   NO.     X        Y        Z      LENGTH     REAL        IMAG.       MAG.        PHASE
     1    1  -0.1491   0.0000   0.0315  0.01491   2.7993E-04  5.4197E-04  6.0999E-04   62.684
     2    1  -0.1342   0.0000   0.0315  0.01491   5.8693E-04  1.1423E-03  1.2843E-03   62.806
     3    1  -0.1193   0.0000   0.0315  0.01491   8.5327E-04  1.6711E-03  1.8764E-03   62.951
     4    1  -0.1044   0.0000   0.0315  0.01491   1.1013E-03  2.1731E-03  2.4362E-03   63.124
     5    1  -0.0895   0.0000   0.0315  0.01491   1.3315E-03  2.6505E-03  2.9662E-03   63.327
     6    1  -0.0746   0.0000   0.0315  0.01491   1.5430E-03  3.1033E-03  3.4657E-03   63.562
     7    1  -0.0596   0.0000   0.0315  0.01491   1.7344E-03  3.5301E-03  3.9332E-03   63.834
     8    1  -0.0447   0.0000   0.0315  0.01491   1.9047E-03  3.9311E-03  4.3682E-03   64.149
     9    1  -0.0298   0.0000   0.0315  0.01491   2.0538E-03  4.3097E-03  4.7741E-03   64.520
    10    1  -0.0149   0.0000   0.0315  0.01491   2.1921E-03  4.7038E-03  5.1896E-03   65.013
    11    1   0.0000   0.0000   0.0315  0.01491   2.3257E-03  5.1360E-03  5.6380E-03   65.638
    12    1   0.0149   0.0000   0.0315  0.01491   2.1921E-03  4.7038E-03  5.1896E-03   65.013
    13    1   0.0298   0.0000   0.0315  0.01491   2.0539E-03  4.3097E-03  4.7741E-03   64.519
    14    1   0.0447   0.0000   0.0315  0.01491   1.9048E-03  3.9312E-03  4.3683E-03   64.148
    15    1   0.0596   0.0000   0.0315  0.01491   1.7346E-03  3.5301E-03  3.9333E-03   63.832
    16    1   0.0746   0.0000   0.0315  0.01491   1.5432E-03  3.1033E-03  3.4658E-03   63.559
    17    1   0.0895   0.0000   0.0315  0.01491   1.3317E-03  2.6506E-03  2.9663E-03   63.323
    18    1   0.1044   0.0000   0.0315  0.01491   1.1016E-03  2.1731E-03  2.4364E-03   63.119
    19    1   0.1193   0.0000   0.0315  0.01491   8.5358E-04  1.6712E-03  1.8766E-03   62.944
    20    1   0.1342   0.0000   0.0315  0.01491   5.8730E-04  1.1424E-03  1.2845E-03   62.793
    21    1   0.1491   0.0000   0.0315  0.01491   2.8018E-04  5.4202E-04  6.1015E-04   62.665



                                        - - - POWER BUDGET - - -

                                           INPUT POWER   = 1.1628E-03 WATTS
                                           RADIATED POWER= 3.6816E-04 WATTS
                                           STRUCTURE LOSS= 7.9468E-04 WATTS
                                           NETWORK LOSS  = 0.0000E+00 WATTS
                                           EFFICIENCY    =  31.66 PERCENT




                                 - - - - - - FREQUENCY - - - - - -

                                    FREQUENCY= 6.4000E+02 MHZ
                                    WAVELENGTH= 4.6843E-01 METERS




                    APPROXIMATE INTEGRATION EMPLOYED FOR SEGMENTS MORE THAN   1.000 WAVELENGTHS APART

                    THE EXTENDED THIN WIRE KERNEL WILL BE USED



                               - - - STRUCTURE IMPEDANCE LOADING - - -


       LOCATION          RESISTANCE   INDUCTANCE  CAPACITANCE       IMPEDANCE (OHMS)     CONDUCTIVITY    TYPE
    ITAG FROM THRU          OHMS        HENRYS       FARADS        REAL      IMAGINARY    MHOS/METER

       1   11   11      5.0000E+01                                                                     SERIES 



                                  - - - ANTENNA ENVIRONMENT - - -

                                        FINITE GROUND.  SOMMERFELD SOLUTION
                                        RELATIVE DIELECTRIC CONST.= 41.500
                                        CONDUCTIVITY= 9.700E-01 MHOS/METER
                                        COMPLEX DIELECTRIC CONSTANT= 4.15000E+01-2.72435E+01



                                - - - MATRIX TIMING - - -

                        FILL=    0.006 SEC.,  FACTOR=    0.000 SEC.



                                          - - - ANTENNA INPUT PARAMETERS - - -

   TAG   SEG.    VOLTAGE (VOLTS)         CURRENT (AMPS)         IMPEDANCE (OHMS)        ADMITTANCE (MHOS)      POWER
   NO.   NO.    REAL        IMAG.       REAL        IMAG.       REAL        IMAG.       REAL        IMAG.     (WATTS)
     1    11 1.00000E+00 0.00000E+00 2.50251E-03 5.26310E-03 7.36839E+01-1.54967E+02 2.50251E-03 5.26310E-03 1.25126E-03



                             - - - CURRENTS AND LOCATION - - -

                                 DISTANCES IN WAVELENGTHS


  SEG.  TAG    COORD. OF SEG. CENTER     SEG.            - - - CURRENT (AMPS) - - -
  NO.   NO.     X        Y        Z      LENGTH     REAL        IMAG.       MAG.        PHASE
     1    1  -0.1515   0.0000   0.0320  0.01515   3.0316E-04  5.5881E-04  6.3575E-04   61.519
     2    1  -0.1363   0.0000   0.0320  0.01515   6.3558E-04  1.1777E-03  1.3383E-03   61.645
     3    1  -0.1212   0.0000   0.0320  0.01515   9.2383E-04  1.7226E-03  1.9547E-03   61.795
     4    1  -0.1060   0.0000   0.0320  0.01515   1.1920E-03  2.2393E-03  2.5368E-03   61.973
     5    1  -0.0909   0.0000   0.0320  0.01515   1.4407E-03  2.7304E-03  3.0871E-03   62.181
     6    1  -0.0757   0.0000   0.0320  0.01515   1.6687E-03  3.1952E-03  3.6047E-03   62.424
     7    1  -0.0606   0.0000   0.0320  0.01515   1.8746E-03  3.6327E-03  4.0878E-03   62.704
     8    1  -0.0454   0.0000   0.0320  0.01515   2.0572E-03  4.0425E-03  4.5359E-03   63.029
     9    1  -0.0303   0.0000   0.0320  0.01515   2.2163E-03  4.4281E-03  4.9518E-03   63.412
    10    1  -0.0151   0.0000   0.0320  0.01515   2.3627E-03  4.8275E-03  5.3746E-03   63.922
    11    1   0.0000   0.0000   0.0320  0.01515   2.5025E-03  5.2631E-03  5.8278E-03   64.570
    12    1   0.0151   0.0000   0.0320  0.01515   2.3627E-03  4.8275E-03  5.3747E-03   63.922
    13    1   0.0303   0.0000   0.0320  0.01515   2.2164E-03  4.4281E-03  4.9518E-03   63.411
    14    1   0.0454   0.0000   0.0320  0.01515   2.0573E-03  4.0426E-03  4.5359E-03   63.028
    15    1   0.0606   0.0000   0.0320  0.01515   1.8748E-03  3.6327E-03  4.0879E-03   62.702
    16    1   0.0757   0.0000   0.0320  0.01515   1.6690E-03  3.1953E-03  3.6049E-03   62.421
    17    1   0.0909   0.0000   0.0320  0.01515   1.4409E-03  2.7304E-03  3.0873E-03   62.178
    18    1   0.1060   0.0000   0.0320  0.01515   1.1923E-03  2.2394E-03  2.5370E-03   61.968
    19    1   0.1212   0.0000   0.0320  0.01515   9.2416E-04  1.7226E-03  1.9549E-03   61.787
    20    1   0.1363   0.0000   0.0320  0.01515   6.3598E-04  1.1778E-03  1.3385E-03   61.632
    21    1   0.1515   0.0000   0.0320  0.01515   3.0343E-04  5.5886E-04  6.3592E-04   61.500



                                        - - - POWER BUDGET - - -

                                           INPUT POWER   = 1.2513E-03 WATTS
                                           RADIATED POWER= 4.0219E-04 WATTS
                                           STRUCTURE LOSS= 8.4907E-04 WATTS
                                           NETWORK LOSS  = 0.0000E+00 WATTS
                                           EFFICIENCY    =  32.14 PERCENT




                                 - - - - - - FREQUENCY - - - - - -

                                    FREQUENCY= 6.5000E+02 MHZ
                                    WAVELENGTH= 4.6122E-01 METERS




                    APPROXIMATE INTEGRATION EMPLOYED FOR SEGMENTS MORE THAN   1.000 WAVELENGTHS APART

                    THE EXTENDED THIN WIRE KERNEL WILL BE USED



                               - - - STRUCTURE IMPEDANCE LOADING - - -


       LOCATION          RESISTANCE   INDUCTANCE  CAPACITANCE       IMPEDANCE (OHMS)     CONDUCTIVITY    TYPE
    ITAG FROM THRU          OHMS        HENRYS       FARADS        REAL      IMAGINARY    MHOS/METER

       1   11   11      5.0000E+01                                                                     SERIES 



                                  - - - ANTENNA ENVIRONMENT - - -

                                        FINITE GROUND.  SOMMERFELD SOLUTION
                                        RELATIVE DIELECTRIC CONST.= 41.500
                                        CONDUCTIVITY= 9.700E-01 MHOS/METER
                                        COMPLEX DIELECTRIC CONSTANT= 4.15000E+01-2.68244E+01



                                - - - MATRIX TIMING - - -

                        FILL=    0.006 SEC.,  FACTOR=    0.000 SEC.



                                          - - - ANTENNA INPUT PARAMETERS - - -

   TAG   SEG.    VOLTAGE (VOLTS)         CURRENT (AMPS)         IMPEDANCE (OHMS)        ADMITTANCE (MHOS)      POWER
   NO.   NO.    REAL        IMAG.       REAL        IMAG.       REAL        IMAG.       REAL        IMAG.     (WATTS)
     1    11 1.00000E+00 0.00000E+00 2.69372E-03 5.38888E-03 7.42150E+01-1.48470E+02 2.69372E-03 5.38888E-03 1.34686E-03



                             - - - CURRENTS AND LOCATION - - -

                                 DISTANCES IN WAVELENGTHS


  SEG.  TAG    COORD. OF SEG. CENTER     SEG.            - - - CURRENT (AMPS) - - -
  NO.   NO.     X        Y        Z      LENGTH     REAL        IMAG.       MAG.        PHASE
     1    1  -0.1538   0.0000   0.0325  0.01538   3.2845E-04  5.7567E-04  6.6278E-04   60.293
     2    1  -0.1385   0.0000   0.0325  0.01538   6.8852E-04  1.2131E-03  1.3949E-03   60.423
     3    1  -0.1231   0.0000   0.0325  0.01538   1.0006E-03  1.7740E-03  2.0368E-03   60.576
     4    1  -0.1077   0.0000   0.0325  0.01538   1.2907E-03  2.3056E-03  2.6423E-03   60.760
     5    1  -0.0923   0.0000   0.0325  0.01538   1.5594E-03  2.8102E-03  3.2138E-03   60.974
     6    1  -0.0769   0.0000   0.0325  0.01538   1.8054E-03  3.2871E-03  3.7503E-03   61.223
     7    1  -0.0615   0.0000   0.0325  0.01538   2.0269E-03  3.7350E-03  4.2496E-03   61.512
     8    1  -0.0462   0.0000   0.0325  0.01538   2.2227E-03  4.1536E-03  4.7109E-03   61.847
     9    1  -0.0308   0.0000   0.0325  0.01538   2.3925E-03  4.5459E-03  5.1371E-03   62.242
    10    1  -0.0154   0.0000   0.0325  0.01538   2.5474E-03  4.9502E-03  5.5672E-03   62.770
    11    1   0.0000   0.0000   0.0325  0.01538   2.6937E-03  5.3889E-03  6.0246E-03   63.441
    12    1   0.0154   0.0000   0.0325  0.01538   2.5474E-03  4.9502E-03  5.5672E-03   62.769
    13    1   0.0308   0.0000   0.0325  0.01538   2.3926E-03  4.5459E-03  5.1371E-03   62.241
    14    1   0.0462   0.0000   0.0325  0.01538   2.2228E-03  4.1536E-03  4.7110E-03   61.846
    15    1   0.0615   0.0000   0.0325  0.01538   2.0271E-03  3.7350E-03  4.2497E-03   61.510
    16    1   0.0769   0.0000   0.0325  0.01538   1.8056E-03  3.2871E-03  3.7504E-03   61.221
    17    1   0.0923   0.0000   0.0325  0.01538   1.5596E-03  2.8102E-03  3.2140E-03   60.970
    18    1   0.1077   0.0000   0.0325  0.01538   1.2910E-03  2.3057E-03  2.6425E-03   60.754
    19    1   0.1231   0.0000   0.0325  0.01538   1.0009E-03  1.7741E-03  2.0370E-03   60.568
    20    1   0.1385   0.0000   0.0325  0.01538   6.8895E-04  1.2132E-03  1.3952E-03   60.408
    21    1   0.1538   0.0000   0.0325  0.01538   3.2874E-04  5.7572E-04  6.6296E-04   60.273



                                        - - - POWER BUDGET - - -

                                           INPUT POWER   = 1.3469E-03 WATTS
                                           RADIATED POWER= 4.3946E-04 WATTS
                                           STRUCTURE LOSS= 9.0740E-04 WATTS
                                           NETWORK LOSS  = 0.0000E+00 WATTS
                                           EFFICIENCY    =  32.63 PERCENT




                                 - - - - - - FREQUENCY - - - - - -

                                    FREQUENCY= 6.6000E+02 MHZ
                                    WAVELENGTH= 4.5423E-01 METERS




                    APPROXIMATE INTEGRATION EMPLOYED FOR SEGMENTS MORE THAN   1.000 WAVELENGTHS APART

                    THE EXTENDED THIN WIRE KERNEL WILL BE USED



                               - - - STRUCTURE IMPEDANCE LOADING - - -


       LOCATION          RESISTANCE   INDUCTANCE  CAPACITANCE       IMPEDANCE (OHMS)     CONDUCTIVITY    TYPE
    ITAG FROM THRU          OHMS        HENRYS       FARADS        REAL      IMAGINARY    MHOS/METER

       1   11   11      5.0000E+01                                                                     SERIES 



                                  - - - ANTENNA ENVIRONMENT - - -

                                        FINITE GROUND.  SOMMERFELD SOLUTION
                                        RELATIVE DIELECTRIC CONST.= 41.500
                                        CONDUCTIVITY= 9.700E-01 MHOS/METER
                                        COMPLEX DIELECTRIC CONSTANT= 4.15000E+01-2.64180E+01



                                - - - MATRIX TIMING - - -

                        FILL=    0.006 SEC.,  FACTOR=    0.000 SEC.



                                          - - - ANTENNA INPUT PARAMETERS - - -

   TAG   SEG.    VOLTAGE (VOLTS)         CURRENT (AMPS)         IMPEDANCE (OHMS)        ADMITTANCE (MHOS)      POWER
   NO.   NO.    REAL        IMAG.       REAL        IMAG.       REAL        IMAG.       REAL        IMAG.     (WATTS)
     1    11 1.00000E+00 0.00000E+00 2.90046E-03 5.51229E-03 7.47580E+01-1.42077E+02 2.90046E-03 5.51229E-03 1.45023E-03



                             - - - CURRENTS AND LOCATION - - -

                                 DISTANCES IN WAVELENGTHS


  SEG.  TAG    COORD. OF SEG. CENTER     SEG.            - - - CURRENT (AMPS) - - -
  NO.   NO.     X        Y        Z      LENGTH     REAL        IMAG.       MAG.        PHASE
     1    1  -0.1562   0.0000   0.0330  0.01562   3.5596E-04  5.9241E-04  6.9113E-04   59.000
     2    1  -0.1406   0.0000   0.0330  0.01562   7.4612E-04  1.2483E-03  1.4543E-03   59.133
     3    1  -0.1250   0.0000   0.0330  0.01562   1.0841E-03  1.8252E-03  2.1228E-03   59.291
     4    1  -0.1093   0.0000   0.0330  0.01562   1.3980E-03  2.3714E-03  2.7528E-03   59.480
     5    1  -0.0937   0.0000   0.0330  0.01562   1.6884E-03  2.8893E-03  3.3465E-03   59.700
     6    1  -0.0781   0.0000   0.0330  0.01562   1.9538E-03  3.3782E-03  3.9025E-03   59.956
     7    1  -0.0625   0.0000   0.0330  0.01562   2.1923E-03  3.8364E-03  4.4186E-03   60.254
     8    1  -0.0469   0.0000   0.0330  0.01562   2.4024E-03  4.2634E-03  4.8937E-03   60.599
     9    1  -0.0312   0.0000   0.0330  0.01562   2.5836E-03  4.6623E-03  5.3303E-03   61.007
    10    1  -0.0156   0.0000   0.0330  0.01562   2.7475E-03  5.0711E-03  5.7676E-03   61.552
    11    1   0.0000   0.0000   0.0330  0.01562   2.9005E-03  5.5123E-03  6.2288E-03   62.248
    12    1   0.0156   0.0000   0.0330  0.01562   2.7475E-03  5.0711E-03  5.7676E-03   61.551
    13    1   0.0312   0.0000   0.0330  0.01562   2.5837E-03  4.6623E-03  5.3303E-03   61.006
    14    1   0.0469   0.0000   0.0330  0.01562   2.4025E-03  4.2634E-03  4.8938E-03   60.598
    15    1   0.0625   0.0000   0.0330  0.01562   2.1925E-03  3.8364E-03  4.4187E-03   60.252
    16    1   0.0781   0.0000   0.0330  0.01562   1.9541E-03  3.3782E-03  3.9027E-03   59.954
    17    1   0.0937   0.0000   0.0330  0.01562   1.6887E-03  2.8894E-03  3.3466E-03   59.696
    18    1   0.1093   0.0000   0.0330  0.01562   1.3983E-03  2.3715E-03  2.7530E-03   59.474
    19    1   0.1250   0.0000   0.0330  0.01562   1.0845E-03  1.8252E-03  2.1231E-03   59.283
    20    1   0.1406   0.0000   0.0330  0.01562   7.4658E-04  1.2484E-03  1.4546E-03   59.118
    21    1   0.1562   0.0000   0.0330  0.01562   3.5627E-04  5.9245E-04  6.9132E-04   58.979



                                        - - - POWER BUDGET - - -

[...]
     6    1  -0.1716   0.0000   0.0726  0.03432   1.0278E-03 -3.2953E-03  3.4519E-03  -72.678
     7    1  -0.1373   0.0000   0.0726  0.03432   1.1356E-03 -3.3151E-03  3.5042E-03  -71.090
     8    1  -0.1030   0.0000   0.0726  0.03432   1.2135E-03 -3.1508E-03  3.3763E-03  -68.937
     9    1  -0.0686   0.0000   0.0726  0.03432   1.2568E-03 -2.7932E-03  3.0629E-03  -65.774
    10    1  -0.0343   0.0000   0.0726  0.03432   1.2571E-03 -2.1563E-03  2.4960E-03  -59.757
    11    1   0.0000   0.0000   0.0726  0.03432   1.2099E-03 -1.2026E-03  1.7059E-03  -44.828
    12    1   0.0343   0.0000   0.0726  0.03432   1.2566E-03 -2.1563E-03  2.4958E-03  -59.769
    13    1   0.0686   0.0000   0.0726  0.03432   1.2557E-03 -2.7933E-03  3.0626E-03  -65.793
    14    1   0.1030   0.0000   0.0726  0.03432   1.2119E-03 -3.1510E-03  3.3760E-03  -68.963
    15    1   0.1373   0.0000   0.0726  0.03432   1.1337E-03 -3.3154E-03  3.5038E-03  -71.122
    16    1   0.1716   0.0000   0.0726  0.03432   1.0255E-03 -3.2956E-03  3.4515E-03  -72.716
    17    1   0.2059   0.0000   0.0726  0.03432   8.9194E-04 -3.1003E-03  3.2260E-03  -73.950
    18    1   0.2402   0.0000   0.0726  0.03432   7.3771E-04 -2.7408E-03  2.8383E-03  -74.935
    19    1   0.2745   0.0000   0.0726  0.03432   5.6728E-04 -2.2322E-03  2.3031E-03  -75.741
    20    1   0.3089   0.0000   0.0726  0.03432   3.8430E-04 -1.5904E-03  1.6362E-03  -76.416
    21    1   0.3432   0.0000   0.0726  0.03432   1.7907E-04 -7.7454E-04  7.9497E-04  -76.982



                                        - - - POWER BUDGET - - -

                                           INPUT POWER   = 6.0493E-04 WATTS
                                           RADIATED POWER= 5.3217E-04 WATTS
                                           STRUCTURE LOSS= 7.2751E-05 WATTS
                                           NETWORK LOSS  = 0.0000E+00 WATTS
                                           EFFICIENCY    =  87.97 PERCENT




                                 - - - - - - FREQUENCY - - - - - -

                                    FREQUENCY= 1.4600E+03 MHZ
                                    WAVELENGTH= 2.0534E-01 METERS




                    APPROXIMATE INTEGRATION EMPLOYED FOR SEGMENTS MORE THAN   1.000 WAVELENGTHS APART

                    THE EXTENDED THIN WIRE KERNEL WILL BE USED



                               - - - STRUCTURE IMPEDANCE LOADING - - -


       LOCATION          RESISTANCE   INDUCTANCE  CAPACITANCE       IMPEDANCE (OHMS)     CONDUCTIVITY    TYPE
    ITAG FROM THRU          OHMS        HENRYS       FARADS        REAL      IMAGINARY    MHOS/METER

       1   11   11      5.0000E+01                                                                     SERIES 



                                  - - - ANTENNA ENVIRONMENT - - -

                                        FINITE GROUND.  SOMMERFELD SOLUTION
                                        RELATIVE DIELECTRIC CONST.= 41.500
                                        CONDUCTIVITY= 9.700E-01 MHOS/METER
                                        COMPLEX DIELECTRIC CONSTANT= 4.15000E+01-1.19424E+01



                                - - - MATRIX TIMING - - -

                        FILL=    0.007 SEC.,  FACTOR=    0.000 SEC.



                                          - - - ANTENNA INPUT PARAMETERS - - -

   TAG   SEG.    VOLTAGE (VOLTS)         CURRENT (AMPS)         IMPEDANCE (OHMS)        ADMITTANCE (MHOS)      POWER
   NO.   NO.    REAL        IMAG.       REAL        IMAG.       REAL        IMAG.       REAL        IMAG.     (WATTS)
     1    11 1.00000E+00 0.00000E+00 1.18249E-03-1.13895E-03 4.38691E+02 4.22539E+02 1.18249E-03-1.13895E-03 5.91245E-04



                             - - - CURRENTS AND LOCATION - - -

                                 DISTANCES IN WAVELENGTHS


  SEG.  TAG    COORD. OF SEG. CENTER     SEG.            - - - CURRENT (AMPS) - - -
  NO.   NO.     X        Y        Z      LENGTH     REAL        IMAG.       MAG.        PHASE
     1    1  -0.3455   0.0000   0.0731  0.03455   1.7449E-04 -7.7213E-04  7.9160E-04  -77.266
     2    1  -0.3110   0.0000   0.0731  0.03455   3.7419E-04 -1.5852E-03  1.6288E-03  -76.718
     3    1  -0.2764   0.0000   0.0731  0.03455   5.5187E-04 -2.2240E-03  2.2914E-03  -76.064
     4    1  -0.2419   0.0000   0.0731  0.03455   7.1780E-04 -2.7287E-03  2.8215E-03  -75.262
     5    1  -0.2073   0.0000   0.0731  0.03455   8.6832E-04 -3.0832E-03  3.2031E-03  -74.271
     6    1  -0.1728   0.0000   0.0731  0.03455   9.9895E-04 -3.2725E-03  3.4216E-03  -73.025
     7    1  -0.1382   0.0000   0.0731  0.03455   1.1050E-03 -3.2853E-03  3.4661E-03  -71.409
     8    1  -0.1037   0.0000   0.0731  0.03455   1.1820E-03 -3.1132E-03  3.3300E-03  -69.209
     9    1  -0.0691   0.0000   0.0731  0.03455   1.2255E-03 -2.7475E-03  3.0084E-03  -65.961
    10    1  -0.0346   0.0000   0.0731  0.03455   1.2271E-03 -2.1018E-03  2.4338E-03  -59.722
    11    1   0.0000   0.0000   0.0731  0.03455   1.1825E-03 -1.1390E-03  1.6418E-03  -43.926
    12    1   0.0346   0.0000   0.0731  0.03455   1.2266E-03 -2.1019E-03  2.4336E-03  -59.734
    13    1   0.0691   0.0000   0.0731  0.03455   1.2244E-03 -2.7476E-03  3.0081E-03  -65.981
    14    1   0.1037   0.0000   0.0731  0.03455   1.1804E-03 -3.1134E-03  3.3296E-03  -69.237
    15    1   0.1382   0.0000   0.0731  0.03455   1.1030E-03 -3.2855E-03  3.4657E-03  -71.442
    16    1   0.1728   0.0000   0.0731  0.03455   9.9659E-04 -3.2728E-03  3.4212E-03  -73.064
    17    1   0.2073   0.0000   0.0731  0.03455   8.6573E-04 -3.0835E-03  3.2028E-03  -74.317
    18    1   0.2419   0.0000   0.0731  0.03455   7.1512E-04 -2.7291E-03  2.8213E-03  -75.317
    19    1   0.2764   0.0000   0.0731  0.03455   5.4916E-04 -2.2245E-03  2.2913E-03  -76.133
    20    1   0.3110   0.0000   0.0731  0.03455   3.7150E-04 -1.5858E-03  1.6287E-03  -76.815
    21    1   0.3455   0.0000   0.0731  0.03455   1.7285E-04 -7.7254E-04  7.9164E-04  -77.388



                                        - - - POWER BUDGET - - -

                                           INPUT POWER   = 5.9124E-04 WATTS
                                           RADIATED POWER= 5.2386E-04 WATTS
                                           STRUCTURE LOSS= 6.7387E-05 WATTS
                                           NETWORK LOSS  = 0.0000E+00 WATTS
                                           EFFICIENCY    =  88.60 PERCENT




                                 - - - - - - FREQUENCY - - - - - -

                                    FREQUENCY= 1.4700E+03 MHZ
                                    WAVELENGTH= 2.0394E-01 METERS




                    APPROXIMATE INTEGRATION EMPLOYED FOR SEGMENTS MORE THAN   1.000 WAVELENGTHS APART

                    THE EXTENDED THIN WIRE KERNEL WILL BE USED



                               - - - STRUCTURE IMPEDANCE LOADING - - -


       LOCATION          RESISTANCE   INDUCTANCE  CAPACITANCE       IMPEDANCE (OHMS)     CONDUCTIVITY    TYPE
    ITAG FROM THRU          OHMS        HENRYS       FARADS        REAL      IMAGINARY    MHOS/METER

       1   11   11      5.0000E+01                                                                     SERIES 



                                  - - - ANTENNA ENVIRONMENT - - -

                                        FINITE GROUND.  SOMMERFELD SOLUTION
                                        RELATIVE DIELECTRIC CONST.= 41.500
                                        CONDUCTIVITY= 9.700E-01 MHOS/METER
                                        COMPLEX DIELECTRIC CONSTANT= 4.15000E+01-1.18611E+01



                                - - - MATRIX TIMING - - -

                        FILL=    0.006 SEC.,  FACTOR=    0.001 SEC.



                                          - - - ANTENNA INPUT PARAMETERS - - -

   TAG   SEG.    VOLTAGE (VOLTS)         CURRENT (AMPS)         IMPEDANCE (OHMS)        ADMITTANCE (MHOS)      POWER
   NO.   NO.    REAL        IMAG.       REAL        IMAG.       REAL        IMAG.       REAL        IMAG.     (WATTS)
     1    11 1.00000E+00 0.00000E+00 1.15661E-03-1.07613E-03 4.63420E+02 4.31177E+02 1.15661E-03-1.07613E-03 5.78304E-04



                             - - - CURRENTS AND LOCATION - - -

                                 DISTANCES IN WAVELENGTHS


  SEG.  TAG    COORD. OF SEG. CENTER     SEG.            - - - CURRENT (AMPS) - - -
  NO.   NO.     X        Y        Z      LENGTH     REAL        IMAG.       MAG.        PHASE
     1    1  -0.3479   0.0000   0.0736  0.03479   1.6849E-04 -7.7032E-04  7.8853E-04  -77.662
     2    1  -0.3131   0.0000   0.0736  0.03479   3.6185E-04 -1.5810E-03  1.6219E-03  -77.108
     3    1  -0.2783   0.0000   0.0736  0.03479   5.3441E-04 -2.2168E-03  2.2803E-03  -76.446
     4    1  -0.2435   0.0000   0.0736  0.03479   6.9604E-04 -2.7176E-03  2.8054E-03  -75.634
     5    1  -0.2087   0.0000   0.0736  0.03479   8.4311E-04 -3.0672E-03  3.1809E-03  -74.630
     6    1  -0.1740   0.0000   0.0736  0.03479   9.7119E-04 -3.2504E-03  3.3924E-03  -73.364
     7    1  -0.1392   0.0000   0.0736  0.03479   1.0756E-03 -3.2562E-03  3.4293E-03  -71.720
     8    1  -0.1044   0.0000   0.0736  0.03479   1.1519E-03 -3.0764E-03  3.2850E-03  -69.473
     9    1  -0.0696   0.0000   0.0736  0.03479   1.1956E-03 -2.7026E-03  2.9553E-03  -66.136
    10    1  -0.0348   0.0000   0.0736  0.03479   1.1986E-03 -2.0482E-03  2.3732E-03  -59.664
    11    1   0.0000   0.0000   0.0736  0.03479   1.1566E-03 -1.0761E-03  1.5798E-03  -42.936
    12    1   0.0348   0.0000   0.0736  0.03479   1.1980E-03 -2.0483E-03  2.3729E-03  -59.677
    13    1   0.0696   0.0000   0.0736  0.03479   1.1944E-03 -2.7027E-03  2.9549E-03  -66.157
    14    1   0.1044   0.0000   0.0736  0.03479   1.1502E-03 -3.0766E-03  3.2845E-03  -69.501
    15    1   0.1392   0.0000   0.0736  0.03479   1.0735E-03 -3.2564E-03  3.4288E-03  -71.754
    16    1   0.1740   0.0000   0.0736  0.03479   9.6875E-04 -3.2507E-03  3.3920E-03  -73.405
    17    1   0.2087   0.0000   0.0736  0.03479   8.4045E-04 -3.0675E-03  3.1805E-03  -74.678
    18    1   0.2435   0.0000   0.0736  0.03479   6.9328E-04 -2.7180E-03  2.8051E-03  -75.691
    19    1   0.2783   0.0000   0.0736  0.03479   5.3163E-04 -2.2173E-03  2.2801E-03  -76.517
    20    1   0.3131   0.0000   0.0736  0.03479   3.5910E-04 -1.5815E-03  1.6218E-03  -77.208
    21    1   0.3479   0.0000   0.0736  0.03479   1.6681E-04 -7.7071E-04  7.8856E-04  -77.787



                                        - - - POWER BUDGET - - -

                                           INPUT POWER   = 5.7830E-04 WATTS
                                           RADIATED POWER= 5.1591E-04 WATTS
                                           STRUCTURE LOSS= 6.2395E-05 WATTS
                                           NETWORK LOSS  = 0.0000E+00 WATTS
                                           EFFICIENCY    =  89.21 PERCENT




                                 - - - - - - FREQUENCY - - - - - -

                                    FREQUENCY= 1.4800E+03 MHZ
                                    WAVELENGTH= 2.0256E-01 METERS




                    APPROXIMATE INTEGRATION EMPLOYED FOR SEGMENTS MORE THAN   1.000 WAVELENGTHS APART

                    THE EXTENDED THIN WIRE KERNEL WILL BE USED



                               - - - STRUCTURE IMPEDANCE LOADING - - -


       LOCATION          RESISTANCE   INDUCTANCE  CAPACITANCE       IMPEDANCE (OHMS)     CONDUCTIVITY    TYPE
    ITAG FROM THRU          OHMS        HENRYS       FARADS        REAL      IMAGINARY    MHOS/METER

       1   11   11      5.0000E+01                                                                     SERIES 



                                  - - - ANTENNA ENVIRONMENT - - -

                                        FINITE GROUND.  SOMMERFELD SOLUTION
                                        RELATIVE DIELECTRIC CONST.= 41.500
                                        CONDUCTIVITY= 9.700E-01 MHOS/METER
                                        COMPLEX DIELECTRIC CONSTANT= 4.15000E+01-1.17810E+01



                                - - - MATRIX TIMING - - -

                        FILL=    0.007 SEC.,  FACTOR=    0.000 SEC.



                                          - - - ANTENNA INPUT PARAMETERS - - -

   TAG   SEG.    VOLTAGE (VOLTS)         CURRENT (AMPS)         IMPEDANCE (OHMS)        ADMITTANCE (MHOS)      POWER
   NO.   NO.    REAL        IMAG.       REAL        IMAG.       REAL        IMAG.       REAL        IMAG.     (WATTS)
     1    11 1.00000E+00 0.00000E+00 1.13213E-03-1.01414E-03 4.90059E+02 4.38984E+02 1.13213E-03-1.01414E-03 5.66065E-04



                             - - - CURRENTS AND LOCATION - - -

                                 DISTANCES IN WAVELENGTHS


  SEG.  TAG    COORD. OF SEG. CENTER     SEG.            - - - CURRENT (AMPS) - - -
  NO.   NO.     X        Y        Z      LENGTH     REAL        IMAG.       MAG.        PHASE
     1    1  -0.3503   0.0000   0.0741  0.03503   1.6267E-04 -7.6868E-04  7.8570E-04  -78.051
     2    1  -0.3152   0.0000   0.0741  0.03503   3.4988E-04 -1.5771E-03  1.6154E-03  -77.492
     3    1  -0.2802   0.0000   0.0741  0.03503   5.1749E-04 -2.2101E-03  2.2699E-03  -76.822
     4    1  -0.2452   0.0000   0.0741  0.03503   6.7500E-04 -2.7072E-03  2.7901E-03  -76.000
     5    1  -0.2102   0.0000   0.0741  0.03503   8.1877E-04 -3.0518E-03  3.1597E-03  -74.982
     6    1  -0.1751   0.0000   0.0741  0.03503   9.4445E-04 -3.2291E-03  3.3644E-03  -73.697
     7    1  -0.1401   0.0000   0.0741  0.03503   1.0474E-03 -3.2279E-03  3.3935E-03  -72.023
     8    1  -0.1051   0.0000   0.0741  0.03503   1.1230E-03 -3.0404E-03  3.2411E-03  -69.727
     9    1  -0.0701   0.0000   0.0741  0.03503   1.1670E-03 -2.6585E-03  2.9034E-03  -66.299
    10    1  -0.0350   0.0000   0.0741  0.03503   1.1715E-03 -1.9954E-03  2.3138E-03  -59.583
    11    1   0.0000   0.0000   0.0741  0.03503   1.1321E-03 -1.0141E-03  1.5199E-03  -41.853
    12    1   0.0350   0.0000   0.0741  0.03503   1.1708E-03 -1.9954E-03  2.3135E-03  -59.597
    13    1   0.0701   0.0000   0.0741  0.03503   1.1658E-03 -2.6586E-03  2.9030E-03  -66.322
    14    1   0.1051   0.0000   0.0741  0.03503   1.1213E-03 -3.0405E-03  3.2407E-03  -69.757
    15    1   0.1401   0.0000   0.0741  0.03503   1.0452E-03 -3.2280E-03  3.3930E-03  -72.059
    16    1   0.1751   0.0000   0.0741  0.03503   9.4192E-04 -3.2293E-03  3.3639E-03  -73.739
    17    1   0.2102   0.0000   0.0741  0.03503   8.1603E-04 -3.0521E-03  3.1593E-03  -75.031
    18    1   0.2452   0.0000   0.0741  0.03503   6.7215E-04 -2.7075E-03  2.7897E-03  -76.058
    19    1   0.2802   0.0000   0.0741  0.03503   5.1464E-04 -2.2105E-03  2.2697E-03  -76.894
    20    1   0.3152   0.0000   0.0741  0.03503   3.4706E-04 -1.5776E-03  1.6154E-03  -77.593
    21    1   0.3503   0.0000   0.0741  0.03503   1.6095E-04 -7.6904E-04  7.8571E-04  -78.179



                                        - - - POWER BUDGET - - -

                                           INPUT POWER   = 5.6606E-04 WATTS
                                           RADIATED POWER= 5.0831E-04 WATTS
                                           STRUCTURE LOSS= 5.7755E-05 WATTS
                                           NETWORK LOSS  = 0.0000E+00 WATTS
                                           EFFICIENCY    =  89.80 PERCENT




                                 - - - - - - FREQUENCY - - - - - -

                                    FREQUENCY= 1.4900E+03 MHZ
                                    WAVELENGTH= 2.0120E-01 METERS




                    APPROXIMATE INTEGRATION EMPLOYED FOR SEGMENTS MORE THAN   1.000 WAVELENGTHS APART

                    THE EXTENDED THIN WIRE KERNEL WILL BE USED



                               - - - STRUCTURE IMPEDANCE LOADING - - -


       LOCATION          RESISTANCE   INDUCTANCE  CAPACITANCE       IMPEDANCE (OHMS)     CONDUCTIVITY    TYPE
    ITAG FROM THRU          OHMS        HENRYS       FARADS        REAL      IMAGINARY    MHOS/METER

       1   11   11      5.0000E+01                                                                     SERIES 



                                  - - - ANTENNA ENVIRONMENT - - -

                                        FINITE GROUND.  SOMMERFELD SOLUTION
                                        RELATIVE DIELECTRIC CONST.= 41.500
                                        CONDUCTIVITY= 9.700E-01 MHOS/METER
                                        COMPLEX DIELECTRIC CONSTANT= 4.15000E+01-1.17019E+01



                                - - - MATRIX TIMING - - -

                        FILL=    0.007 SEC.,  FACTOR=    0.000 SEC.



                                          - - - ANTENNA INPUT PARAMETERS - - -

   TAG   SEG.    VOLTAGE (VOLTS)         CURRENT (AMPS)         IMPEDANCE (OHMS)        ADMITTANCE (MHOS)      POWER
   NO.   NO.    REAL        IMAG.       REAL        IMAG.       REAL        IMAG.       REAL        IMAG.     (WATTS)
     1    11 1.00000E+00 0.00000E+00 1.10898E-03-9.52930E-04 5.18721E+02 4.45728E+02 1.10898E-03-9.52930E-04 5.54491E-04



                             - - - CURRENTS AND LOCATION - - -

                                 DISTANCES IN WAVELENGTHS


  SEG.  TAG    COORD. OF SEG. CENTER     SEG.            - - - CURRENT (AMPS) - - -
  NO.   NO.     X        Y        Z      LENGTH     REAL        IMAG.       MAG.        PHASE
     1    1  -0.3526   0.0000   0.0746  0.03526   1.5700E-04 -7.6720E-04  7.8310E-04  -78.434
     2    1  -0.3174   0.0000   0.0746  0.03526   3.3825E-04 -1.5736E-03  1.6095E-03  -77.868
     3    1  -0.2821   0.0000   0.0746  0.03526   5.0109E-04 -2.2039E-03  2.2602E-03  -77.191
     4    1  -0.2468   0.0000   0.0746  0.03526   6.5461E-04 -2.6973E-03  2.7756E-03  -76.358
     5    1  -0.2116   0.0000   0.0746  0.03526   7.9525E-04 -3.0371E-03  3.1395E-03  -75.327
     6    1  -0.1763   0.0000   0.0746  0.03526   9.1865E-04 -3.2084E-03  3.3373E-03  -74.022
     7    1  -0.1411   0.0000   0.0746  0.03526   1.0202E-03 -3.2002E-03  3.3589E-03  -72.318
     8    1  -0.1058   0.0000   0.0746  0.03526   1.0953E-03 -3.0051E-03  3.1985E-03  -69.973
     9    1  -0.0705   0.0000   0.0746  0.03526   1.1397E-03 -2.6151E-03  2.8527E-03  -66.452
    10    1  -0.0353   0.0000   0.0746  0.03526   1.1456E-03 -1.9433E-03  2.2558E-03  -59.479
    11    1   0.0000   0.0000   0.0746  0.03526   1.1090E-03 -9.5293E-04  1.4622E-03  -40.672
    12    1   0.0353   0.0000   0.0746  0.03526   1.1450E-03 -1.9433E-03  2.2555E-03  -59.494
    13    1   0.0705   0.0000   0.0746  0.03526   1.1385E-03 -2.6152E-03  2.8522E-03  -66.475
    14    1   0.1058   0.0000   0.0746  0.03526   1.0935E-03 -3.0052E-03  3.1979E-03  -70.004
    15    1   0.1411   0.0000   0.0746  0.03526   1.0179E-03 -3.2004E-03  3.3584E-03  -72.356
    16    1   0.1763   0.0000   0.0746  0.03526   9.1604E-04 -3.2086E-03  3.3368E-03  -74.066
    17    1   0.2116   0.0000   0.0746  0.03526   7.9242E-04 -3.0373E-03  3.1390E-03  -75.378
    18    1   0.2468   0.0000   0.0746  0.03526   6.5168E-04 -2.6976E-03  2.7752E-03  -76.419
    19    1   0.2821   0.0000   0.0746  0.03526   4.9816E-04 -2.2043E-03  2.2599E-03  -77.265
    20    1   0.3174   0.0000   0.0746  0.03526   3.3537E-04 -1.5741E-03  1.6094E-03  -77.972
    21    1   0.3526   0.0000   0.0746  0.03526   1.5525E-04 -7.6754E-04  7.8309E-04  -78.565



                                        - - - POWER BUDGET - - -

                                           INPUT POWER   = 5.5449E-04 WATTS
                                           RADIATED POWER= 5.0104E-04 WATTS
                                           STRUCTURE LOSS= 5.3448E-05 WATTS
                                           NETWORK LOSS  = 0.0000E+00 WATTS
                                           EFFICIENCY    =  90.36 PERCENT
 ***** DATA CARD NO.  7   EN   0     0     0     0  0.00000E+00  0.00000E+00  0.00000E+00  0.00000E+00  0.00000E+00  0.00000E+00

 RUN TIME =    20.772
