1



                                 *********************************************

                                    NUMERICAL ELECTROMAGNETICS CODE (NEC-2D)

                                 *********************************************




                                     - - - - COMMENTS - - - -


                          TESTNGF2.NEC: NEC2 NGF test program 2.                                       





     ************************************************************************************
     ************************************************************************************
     **                                                                                **
     ** NUMERICAL GREEN'S FUNCTION                                                     **
     ** NO. SEGMENTS =  40          NO. PATCHES =   0                                  **
     ** N.G.F. MATRIX -  CORE STORAGE =   1600 COMPLEX NUMBERS,  CASE 1                **
     ** FREQUENCY = 1.00000E+03 MHZ.                                                   **
     **                                                                                **
     **  NGF test program 1                                                            **
     **                                                                                **
     ************************************************************************************
     ************************************************************************************









                                 - - - STRUCTURE SPECIFICATION - - -

                                     COORDINATES MUST BE INPUT IN
                                     METERS OR BE SCALED TO METERS
                                     BEFORE STRUCTURE INPUT IS ENDED


  WIRE                                                                               NO. OF    FIRST  LAST     TAG
  NO.        X1         Y1         Z1          X2         Y2         Z2      RADIUS   SEG.     SEG.   SEG.     NO.
     1    0.10000    0.10000    0.20000     0.00000    0.10000    0.20000    0.00150     10       41    50       5

   TOTAL SEGMENTS USED=   50     NO. SEG. IN A SYMMETRIC CELL=   50     SYMMETRY FLAG=  0


         - MULTIPLE WIRE JUNCTIONS -
 JUNCTION    SEGMENTS  (- FOR END 1, + FOR END 2)
  NONE




                                 - - - - SEGMENTATION DATA - - - -

                                        COORDINATES IN METERS

                         I+ AND I- INDICATE THE SEGMENTS BEFORE AND AFTER I


  SEG.   COORDINATES OF SEG. CENTER     SEG.     ORIENTATION ANGLES    WIRE    CONNECTION DATA   TAG
  NO.       X         Y         Z       LENGTH     ALPHA     BETA      RADIUS    I-   I    I+    NO.
     1   0.00000   0.00000   0.00500   0.01000   90.00000   0.00000   0.00150     0    1    2      1
     2   0.00000   0.00000   0.01500   0.01000   90.00000   0.00000   0.00150     1    2    3      1
     3   0.00000   0.00000   0.02500   0.01000   90.00000   0.00000   0.00150     2    3    4      1
     4   0.00000   0.00000   0.03500   0.01000   90.00000   0.00000   0.00150     3    4    5      1
     5   0.00000   0.00000   0.04500   0.01000   90.00000   0.00000   0.00150     4    5    6      1
     6   0.00000   0.00000   0.05500   0.01000   90.00000   0.00000   0.00150     5    6    7      1
     7   0.00000   0.00000   0.06500   0.01000   90.00000   0.00000   0.00150     6    7    8      1
     8   0.00000   0.00000   0.07500   0.01000   90.00000   0.00000   0.00150     7    8    9      1
     9   0.00000   0.00000   0.08500   0.01000   90.00000   0.00000   0.00150     8    9   10      1
    10   0.00000   0.00000   0.09500   0.01000   90.00000   0.00000   0.00150     9   10   11      1
    11   0.00500   0.00000   0.10000   0.01000    0.00000   0.00000   0.00150    10   11   12      2
    12   0.01500   0.00000   0.10000   0.01000    0.00000   0.00000   0.00150    11   12   13      2
    13   0.02500   0.00000   0.10000   0.01000    0.00000   0.00000   0.00150    12   13   14      2
    14   0.03500   0.00000   0.10000   0.01000    0.00000   0.00000   0.00150    13   14   15      2
    15   0.04500   0.00000   0.10000   0.01000    0.00000   0.00000   0.00150    14   15   16      2
    16   0.05500   0.00000   0.10000   0.01000    0.00000   0.00000   0.00150    15   16   17      2
    17   0.06500   0.00000   0.10000   0.01000    0.00000   0.00000   0.00150    16   17   18      2
    18   0.07500   0.00000   0.10000   0.01000    0.00000   0.00000   0.00150    17   18   19      2
    19   0.08500   0.00000   0.10000   0.01000    0.00000   0.00000   0.00150    18   19   20      2
    20   0.09500   0.00000   0.10000   0.01000    0.00000   0.00000   0.00150    19   20   21      2
    21   0.10000   0.00000   0.10500   0.01000   90.00000   0.00000   0.00150    20   21   22      3
    22   0.10000   0.00000   0.11500   0.01000   90.00000   0.00000   0.00150    21   22   23      3
    23   0.10000   0.00000   0.12500   0.01000   90.00000   0.00000   0.00150    22   23   24      3
    24   0.10000   0.00000   0.13500   0.01000   90.00000   0.00000   0.00150    23   24   25      3
    25   0.10000   0.00000   0.14500   0.01000   90.00000   0.00000   0.00150    24   25   26      3
    26   0.10000   0.00000   0.15500   0.01000   90.00000   0.00000   0.00150    25   26   27      3
    27   0.10000   0.00000   0.16500   0.01000   90.00000   0.00000   0.00150    26   27   28      3
    28   0.10000   0.00000   0.17500   0.01000   90.00000   0.00000   0.00150    27   28   29      3
    29   0.10000   0.00000   0.18500   0.01000   90.00000   0.00000   0.00150    28   29   30      3
    30   0.10000   0.00000   0.19500   0.01000   90.00000   0.00000   0.00150    29   30   31      3
    31   0.10000   0.00500   0.20000   0.01000    0.00000  90.00000   0.00150    30   31   32      4
    32   0.10000   0.01500   0.20000   0.01000    0.00000  90.00000   0.00150    31   32   33      4
    33   0.10000   0.02500   0.20000   0.01000    0.00000  90.00000   0.00150    32   33   34      4
    34   0.10000   0.03500   0.20000   0.01000    0.00000  90.00000   0.00150    33   34   35      4
    35   0.10000   0.04500   0.20000   0.01000    0.00000  90.00000   0.00150    34   35   36      4
    36   0.10000   0.05500   0.20000   0.01000    0.00000  90.00000   0.00150    35   36   37      4
    37   0.10000   0.06500   0.20000   0.01000    0.00000  90.00000   0.00150    36   37   38      4
    38   0.10000   0.07500   0.20000   0.01000    0.00000  90.00000   0.00150    37   38   39      4
    39   0.10000   0.08500   0.20000   0.01000    0.00000  90.00000   0.00150    38   39   40      4
    40   0.10000   0.09500   0.20000   0.01000    0.00000  90.00000   0.00150    39   40   41      4
    41   0.09500   0.10000   0.20000   0.01000    0.00000 180.00000   0.00150    40   41   42      5
    42   0.08500   0.10000   0.20000   0.01000    0.00000 180.00000   0.00150    41   42   43      5
    43   0.07500   0.10000   0.20000   0.01000    0.00000 180.00000   0.00150    42   43   44      5
    44   0.06500   0.10000   0.20000   0.01000    0.00000 180.00000   0.00150    43   44   45      5
    45   0.05500   0.10000   0.20000   0.01000    0.00000 180.00000   0.00150    44   45   46      5
    46   0.04500   0.10000   0.20000   0.01000    0.00000 180.00000   0.00150    45   46   47      5
    47   0.03500   0.10000   0.20000   0.01000    0.00000 180.00000   0.00150    46   47   48      5
    48   0.02500   0.10000   0.20000   0.01000    0.00000 180.00000   0.00150    47   48   49      5
    49   0.01500   0.10000   0.20000   0.01000    0.00000 180.00000   0.00150    48   49   50      5
    50   0.00500   0.10000   0.20000   0.01000    0.00000 180.00000   0.00150    49   50    0      5


 N.G.F. - NUMBER OF NEW UNKNOWNS IS  11






 ***** DATA CARD NO.  1   EX   1     1     1     0  9.00000E+01  0.00000E+00  0.00000E+00  0.00000E+00  0.00000E+00  0.00000E+00
 ***** DATA CARD NO.  2   XQ   0     0     0     0  0.00000E+00  0.00000E+00  0.00000E+00  0.00000E+00  0.00000E+00  0.00000E+00




                                 - - - - - - FREQUENCY - - - - - -

                                    FREQUENCY= 1.0000E+03 MHZ
                                    WAVELENGTH= 2.9979E-01 METERS




                    APPROXIMATE INTEGRATION EMPLOYED FOR SEGMENTS MORE THAN   1.000 WAVELENGTHS APART



                               - - - STRUCTURE IMPEDANCE LOADING - - -

                                   THIS STRUCTURE IS NOT LOADED



                                  - - - ANTENNA ENVIRONMENT - - -

                                            FREE SPACE



                                - - - MATRIX TIMING - - -

                        FILL=    0.030 SEC.,  FACTOR=    0.000 SEC.



                                        - - - EXCITATION - - -

    PLANE WAVE    THETA=  90.00 DEG,  PHI=   0.00 DEG,  ETA=   0.00 DEG,  TYPE -LINEAR=  AXIAL RATIO= 0.000



                             - - - CURRENTS AND LOCATION - - -

                                 DISTANCES IN WAVELENGTHS


  SEG.  TAG    COORD. OF SEG. CENTER     SEG.            - - - CURRENT (AMPS) - - -
  NO.   NO.     X        Y        Z      LENGTH     REAL        IMAG.       MAG.        PHASE
     1    1   0.0000   0.0000   0.0167  0.03336  -1.4845E-05  7.8667E-05  8.0055E-05  100.687
     2    1   0.0000   0.0000   0.0500  0.03336  -3.5441E-05  1.8005E-04  1.8351E-04  101.136
     3    1   0.0000   0.0000   0.0834  0.03336  -5.5394E-05  2.7087E-04  2.7647E-04  101.558
     4    1   0.0000   0.0000   0.1167  0.03336  -7.5108E-05  3.5485E-04  3.6271E-04  101.951
     5    1   0.0000   0.0000   0.1501  0.03336  -9.3873E-05  4.2978E-04  4.3991E-04  102.321
     6    1   0.0000   0.0000   0.1835  0.03336  -1.1093E-04  4.9341E-04  5.0572E-04  102.671
     7    1   0.0000   0.0000   0.2168  0.03336  -1.2553E-04  5.4377E-04  5.5807E-04  102.999
     8    1   0.0000   0.0000   0.2502  0.03336  -1.3701E-04  5.7944E-04  5.9542E-04  103.304
     9    1   0.0000   0.0000   0.2835  0.03336  -1.4484E-04  5.9973E-04  6.1698E-04  103.578
    10    1   0.0000   0.0000   0.3169  0.03336  -1.4869E-04  6.0514E-04  6.2314E-04  103.805
    11    2   0.0167   0.0000   0.3336  0.03336  -1.4874E-04  5.9666E-04  6.1492E-04  103.998
    12    2   0.0500   0.0000   0.3336  0.03336  -1.4530E-04  5.6479E-04  5.8318E-04  104.427
    13    2   0.0834   0.0000   0.3336  0.03336  -1.3799E-04  5.0882E-04  5.2720E-04  105.174
    14    2   0.1167   0.0000   0.3336  0.03336  -1.2689E-04  4.3077E-04  4.4907E-04  106.413
    15    2   0.1501   0.0000   0.3336  0.03336  -1.1234E-04  3.3360E-04  3.5201E-04  108.612
    16    2   0.1835   0.0000   0.3336  0.03336  -9.4888E-05  2.2108E-04  2.4058E-04  113.229
    17    2   0.2168   0.0000   0.3336  0.03336  -7.5188E-05  9.7625E-05  1.2322E-04  127.603
    18    2   0.2502   0.0000   0.3336  0.03336  -5.4022E-05 -3.1866E-05  6.2720E-05 -149.465
    19    2   0.2835   0.0000   0.3336  0.03336  -3.2244E-05 -1.6220E-04  1.6538E-04 -101.243
    20    2   0.3169   0.0000   0.3336  0.03336  -1.0736E-05 -2.8852E-04  2.8872E-04  -92.131
    21    3   0.3336   0.0000   0.3502  0.03336   9.1190E-06 -4.0899E-04  4.0909E-04  -88.723
    22    3   0.3336   0.0000   0.3836  0.03336   2.2460E-05 -5.1826E-04  5.1875E-04  -87.519
    23    3   0.3336   0.0000   0.4170  0.03336   3.0077E-05 -6.1300E-04  6.1374E-04  -87.191
    24    3   0.3336   0.0000   0.4503  0.03336   3.2346E-05 -6.8911E-04  6.8987E-04  -87.313
    25    3   0.3336   0.0000   0.4837  0.03336   2.9491E-05 -7.4341E-04  7.4399E-04  -87.728
    26    3   0.3336   0.0000   0.5170  0.03336   2.1832E-05 -7.7372E-04  7.7403E-04  -88.384
    27    3   0.3336   0.0000   0.5504  0.03336   9.7857E-06 -7.7898E-04  7.7904E-04  -89.280
    28    3   0.3336   0.0000   0.5837  0.03336  -6.1491E-06 -7.5924E-04  7.5927E-04  -90.464
    29    3   0.3336   0.0000   0.6171  0.03336  -2.5424E-05 -7.1574E-04  7.1620E-04  -92.034
    30    3   0.3336   0.0000   0.6504  0.03336  -4.7700E-05 -6.5103E-04  6.5277E-04  -94.190
    31    4   0.3336   0.0167   0.6671  0.03336  -7.2991E-05 -5.6770E-04  5.7237E-04  -97.326
    32    4   0.3336   0.0500   0.6671  0.03336  -9.5419E-05 -4.6633E-04  4.7599E-04 -101.564
    33    4   0.3336   0.0834   0.6671  0.03336  -1.1393E-04 -3.4795E-04  3.6612E-04 -108.130
    34    4   0.3336   0.1167   0.6671  0.03336  -1.2789E-04 -2.1689E-04  2.5178E-04 -120.525
    35    4   0.3336   0.1501   0.6671  0.03336  -1.3677E-04 -7.8254E-05  1.5757E-04 -150.223
    36    4   0.3336   0.1835   0.6671  0.03336  -1.4026E-04  6.2576E-05  1.5358E-04  155.956
    37    4   0.3336   0.2168   0.6671  0.03336  -1.3824E-04  2.0016E-04  2.4326E-04  124.631
    38    4   0.3336   0.2502   0.6671  0.03336  -1.3084E-04  3.2925E-04  3.5430E-04  111.671
    39    4   0.3336   0.2835   0.6671  0.03336  -1.1836E-04  4.4497E-04  4.6045E-04  104.896
    40    4   0.3336   0.3169   0.6671  0.03336  -1.0131E-04  5.4331E-04  5.5268E-04  100.562
    41    5   0.3169   0.3336   0.6671  0.03336  -8.0664E-05  6.2260E-04  6.2780E-04   97.382
    42    5   0.2835   0.3336   0.6671  0.03336  -6.1548E-05  6.7776E-04  6.8055E-04   95.189
    43    5   0.2502   0.3336   0.6671  0.03336  -4.3928E-05  7.0699E-04  7.0835E-04   93.555
    44    5   0.2168   0.3336   0.6671  0.03336  -2.8093E-05  7.0848E-04  7.0904E-04   92.271
    45    5   0.1835   0.3336   0.6671  0.03336  -1.4518E-05  6.8145E-04  6.8161E-04   91.220
    46    5   0.1501   0.3336   0.6671  0.03336  -3.6421E-06  6.2619E-04  6.2620E-04   90.333
    47    5   0.1167   0.3336   0.6671  0.03336   4.1619E-06  5.4386E-04  5.4388E-04   89.562
    48    5   0.0834   0.3336   0.6671  0.03336   8.5893E-06  4.3616E-04  4.3625E-04   88.872
    49    5   0.0500   0.3336   0.6671  0.03336   9.3851E-06  3.0477E-04  3.0492E-04   88.236
    50    5   0.0167   0.3336   0.6671  0.03336   5.7525E-06  1.4010E-04  1.4022E-04   87.649






 ***** DATA CARD NO.  3   EN   0     0     0     0  0.00000E+00  0.00000E+00  0.00000E+00  0.00000E+00  0.00000E+00  0.00000E+00

 RUN TIME =     0.050
