1



                                 *********************************************

                                    NUMERICAL ELECTROMAGNETICS CODE (NEC-2D)

                                 *********************************************




                                     - - - - COMMENTS - - - -


                          TESTSYMM.NEC: NEC2 symmetry test program.                                    




                                 - - - STRUCTURE SPECIFICATION - - -

                                     COORDINATES MUST BE INPUT IN
                                     METERS OR BE SCALED TO METERS
                                     BEFORE STRUCTURE INPUT IS ENDED


  WIRE                                                                               NO. OF    FIRST  LAST     TAG
  NO.        X1         Y1         Z1          X2         Y2         Z2      RADIUS   SEG.     SEG.   SEG.     NO.
     1    0.00000    0.00000   -0.06900     0.00000    0.00000    0.06900    0.00150     25        1    25       1
      STRUCTURE ROTATED ABOUT Z-AXIS  4 TIMES.  LABELS INCREMENTED BY    1

   TOTAL SEGMENTS USED=  100     NO. SEG. IN A SYMMETRIC CELL=   25     SYMMETRY FLAG= -1
 STRUCTURE HAS   4 FOLD ROTATIONAL SYMMETRY



         - MULTIPLE WIRE JUNCTIONS -
 JUNCTION    SEGMENTS  (- FOR END 1, + FOR END 2)
     1        -1  -26  -51  -76
     2         1   -2   26  -27   51  -52   76  -77
     3         2   -3   27  -28   52  -53   77  -78
     4         3   -4   28  -29   53  -54   78  -79
     5         4   -5   29  -30   54  -55   79  -80
     6         5   -6   30  -31   55  -56   80  -81
     7         6   -7   31  -32   56  -57   81  -82
     8         7   -8   32  -33   57  -58   82  -83
     9         8   -9   33  -34   58  -59   83  -84
    10         9  -10   34  -35   59  -60   84  -85
    11        10  -11   35  -36   60  -61   85  -86
    12        11  -12   36  -37   61  -62   86  -87
    13        12  -13   37  -38   62  -63   87  -88
    14        13  -14   38  -39   63  -64   88  -89
    15        14  -15   39  -40   64  -65   89  -90
    16        15  -16   40  -41   65  -66   90  -91
    17        16  -17   41  -42   66  -67   91  -92
    18        17  -18   42  -43   67  -68   92  -93
    19        18  -19   43  -44   68  -69   93  -94
    20        19  -20   44  -45   69  -70   94  -95
    21        20  -21   45  -46   70  -71   95  -96
    22        21  -22   46  -47   71  -72   96  -97
    23        22  -23   47  -48   72  -73   97  -98
    24        23  -24   48  -49   73  -74   98  -99
    25        24  -25   49  -50   74  -75   99 -100
    26        25   50   75  100




                                 - - - - SEGMENTATION DATA - - - -

                                        COORDINATES IN METERS

                         I+ AND I- INDICATE THE SEGMENTS BEFORE AND AFTER I


  SEG.   COORDINATES OF SEG. CENTER     SEG.     ORIENTATION ANGLES    WIRE    CONNECTION DATA   TAG
  NO.       X         Y         Z       LENGTH     ALPHA     BETA      RADIUS    I-   I    I+    NO.
     1   0.00000   0.00000  -0.06624   0.00552   90.00000   0.00000   0.00150   -26    1    2      1
     2   0.00000   0.00000  -0.06072   0.00552   90.00000   0.00000   0.00150    26    2    3      1
     3   0.00000   0.00000  -0.05520   0.00552   90.00000   0.00000   0.00150    27    3    4      1
     4   0.00000   0.00000  -0.04968   0.00552   90.00000   0.00000   0.00150    28    4    5      1
     5   0.00000   0.00000  -0.04416   0.00552   90.00000   0.00000   0.00150    29    5    6      1
     6   0.00000   0.00000  -0.03864   0.00552   90.00000   0.00000   0.00150    30    6    7      1
     7   0.00000   0.00000  -0.03312   0.00552   90.00000   0.00000   0.00150    31    7    8      1
     8   0.00000   0.00000  -0.02760   0.00552   90.00000   0.00000   0.00150    32    8    9      1
     9   0.00000   0.00000  -0.02208   0.00552   90.00000   0.00000   0.00150    33    9   10      1
    10   0.00000   0.00000  -0.01656   0.00552   90.00000   0.00000   0.00150    34   10   11      1
    11   0.00000   0.00000  -0.01104   0.00552   90.00000   0.00000   0.00150    35   11   12      1
    12   0.00000   0.00000  -0.00552   0.00552   90.00000   0.00000   0.00150    36   12   13      1
    13   0.00000   0.00000   0.00000   0.00552   90.00000   0.00000   0.00150    37   13   14      1
    14   0.00000   0.00000   0.00552   0.00552   90.00000   0.00000   0.00150    38   14   15      1
    15   0.00000   0.00000   0.01104   0.00552   90.00000   0.00000   0.00150    39   15   16      1
    16   0.00000   0.00000   0.01656   0.00552   90.00000   0.00000   0.00150    40   16   17      1
    17   0.00000   0.00000   0.02208   0.00552   90.00000   0.00000   0.00150    41   17   18      1
    18   0.00000   0.00000   0.02760   0.00552   90.00000   0.00000   0.00150    42   18   19      1
    19   0.00000   0.00000   0.03312   0.00552   90.00000   0.00000   0.00150    43   19   20      1
    20   0.00000   0.00000   0.03864   0.00552   90.00000   0.00000   0.00150    44   20   21      1
    21   0.00000   0.00000   0.04416   0.00552   90.00000   0.00000   0.00150    45   21   22      1
    22   0.00000   0.00000   0.04968   0.00552   90.00000   0.00000   0.00150    46   22   23      1
    23   0.00000   0.00000   0.05520   0.00552   90.00000   0.00000   0.00150    47   23   24      1
    24   0.00000   0.00000   0.06072   0.00552   90.00000   0.00000   0.00150    48   24   25      1
    25   0.00000   0.00000   0.06624   0.00552   90.00000   0.00000   0.00150    49   25  -50      1
    26   0.00000   0.00000  -0.06624   0.00552   90.00000   0.00000   0.00150   -51   26   27      2
    27   0.00000   0.00000  -0.06072   0.00552   90.00000   0.00000   0.00150    51   27   28      2
    28   0.00000   0.00000  -0.05520   0.00552   90.00000   0.00000   0.00150    52   28   29      2
    29   0.00000   0.00000  -0.04968   0.00552   90.00000   0.00000   0.00150    53   29   30      2
    30   0.00000   0.00000  -0.04416   0.00552   90.00000   0.00000   0.00150    54   30   31      2
    31   0.00000   0.00000  -0.03864   0.00552   90.00000   0.00000   0.00150    55   31   32      2
    32   0.00000   0.00000  -0.03312   0.00552   90.00000   0.00000   0.00150    56   32   33      2
    33   0.00000   0.00000  -0.02760   0.00552   90.00000   0.00000   0.00150    57   33   34      2
    34   0.00000   0.00000  -0.02208   0.00552   90.00000   0.00000   0.00150    58   34   35      2
    35   0.00000   0.00000  -0.01656   0.00552   90.00000   0.00000   0.00150    59   35   36      2
    36   0.00000   0.00000  -0.01104   0.00552   90.00000   0.00000   0.00150    60   36   37      2
    37   0.00000   0.00000  -0.00552   0.00552   90.00000   0.00000   0.00150    61   37   38      2
    38   0.00000   0.00000   0.00000   0.00552   90.00000   0.00000   0.00150    62   38   39      2
    39   0.00000   0.00000   0.00552   0.00552   90.00000   0.00000   0.00150    63   39   40      2
    40   0.00000   0.00000   0.01104   0.00552   90.00000   0.00000   0.00150    64   40   41      2
    41   0.00000   0.00000   0.01656   0.00552   90.00000   0.00000   0.00150    65   41   42      2
    42   0.00000   0.00000   0.02208   0.00552   90.00000   0.00000   0.00150    66   42   43      2
    43   0.00000   0.00000   0.02760   0.00552   90.00000   0.00000   0.00150    67   43   44      2
    44   0.00000   0.00000   0.03312   0.00552   90.00000   0.00000   0.00150    68   44   45      2
    45   0.00000   0.00000   0.03864   0.00552   90.00000   0.00000   0.00150    69   45   46      2
    46   0.00000   0.00000   0.04416   0.00552   90.00000   0.00000   0.00150    70   46   47      2
    47   0.00000   0.00000   0.04968   0.00552   90.00000   0.00000   0.00150    71   47   48      2
    48   0.00000   0.00000   0.05520   0.00552   90.00000   0.00000   0.00150    72   48   49      2
    49   0.00000   0.00000   0.06072   0.00552   90.00000   0.00000   0.00150    73   49   50      2
    50   0.00000   0.00000   0.06624   0.00552   90.00000   0.00000   0.00150    74   50  -75      2
    51   0.00000   0.00000  -0.06624   0.00552   90.00000   0.00000   0.00150   -76   51   52      3
    52   0.00000   0.00000  -0.06072   0.00552   90.00000   0.00000   0.00150    76   52   53      3
    53   0.00000   0.00000  -0.05520   0.00552   90.00000   0.00000   0.00150    77   53   54      3
    54   0.00000   0.00000  -0.04968   0.00552   90.00000   0.00000   0.00150    78   54   55      3
    55   0.00000   0.00000  -0.04416   0.00552   90.00000   0.00000   0.00150    79   55   56      3
    56   0.00000   0.00000  -0.03864   0.00552   90.00000   0.00000   0.00150    80   56   57      3
    57   0.00000   0.00000  -0.03312   0.00552   90.00000   0.00000   0.00150    81   57   58      3
    58   0.00000   0.00000  -0.02760   0.00552   90.00000   0.00000   0.00150    82   58   59      3
    59   0.00000   0.00000  -0.02208   0.00552   90.00000   0.00000   0.00150    83   59   60      3
    60   0.00000   0.00000  -0.01656   0.00552   90.00000   0.00000   0.00150    84   60   61      3
    61   0.00000   0.00000  -0.01104   0.00552   90.00000   0.00000   0.00150    85   61   62      3
    62   0.00000   0.00000  -0.00552   0.00552   90.00000   0.00000   0.00150    86   62   63      3
    63   0.00000   0.00000   0.00000   0.00552   90.00000   0.00000   0.00150    87   63   64      3
    64   0.00000   0.00000   0.00552   0.00552   90.00000   0.00000   0.00150    88   64   65      3
    65   0.00000   0.00000   0.01104   0.00552   90.00000   0.00000   0.00150    89   65   66      3
    66   0.00000   0.00000   0.01656   0.00552   90.00000   0.00000   0.00150    90   66   67      3
    67   0.00000   0.00000   0.02208   0.00552   90.00000   0.00000   0.00150    91   67   68      3
    68   0.00000   0.00000   0.02760   0.00552   90.00000   0.00000   0.00150    92   68   69      3
    69   0.00000   0.00000   0.03312   0.00552   90.00000   0.00000   0.00150    93   69   70      3
    70   0.00000   0.00000   0.03864   0.00552   90.00000   0.00000   0.00150    94   70   71      3
    71   0.00000   0.00000   0.04416   0.00552   90.00000   0.00000   0.00150    95   71   72      3
    72   0.00000   0.00000   0.04968   0.00552   90.00000   0.00000   0.00150    96   72   73      3
    73   0.00000   0.00000   0.05520   0.00552   90.00000   0.00000   0.00150    97   73   74      3
    74   0.00000   0.00000   0.06072   0.00552   90.00000   0.00000   0.00150    98   74   75      3
    75   0.00000   0.00000   0.06624   0.00552   90.00000   0.00000   0.00150    99   75 -100      3
    76   0.00000   0.00000  -0.06624   0.00552   90.00000   0.00000   0.00150    -1   76   77      4
    77   0.00000   0.00000  -0.06072   0.00552   90.00000   0.00000   0.00150     1   77   78      4
    78   0.00000   0.00000  -0.05520   0.00552   90.00000   0.00000   0.00150     2   78   79      4
    79   0.00000   0.00000  -0.04968   0.00552   90.00000   0.00000   0.00150     3   79   80      4
    80   0.00000   0.00000  -0.04416   0.00552   90.00000   0.00000   0.00150     4   80   81      4
    81   0.00000   0.00000  -0.03864   0.00552   90.00000   0.00000   0.00150     5   81   82      4
    82   0.00000   0.00000  -0.03312   0.00552   90.00000   0.00000   0.00150     6   82   83      4
    83   0.00000   0.00000  -0.02760   0.00552   90.00000   0.00000   0.00150     7   83   84      4
    84   0.00000   0.00000  -0.02208   0.00552   90.00000   0.00000   0.00150     8   84   85      4
    85   0.00000   0.00000  -0.01656   0.00552   90.00000   0.00000   0.00150     9   85   86      4
    86   0.00000   0.00000  -0.01104   0.00552   90.00000   0.00000   0.00150    10   86   87      4
    87   0.00000   0.00000  -0.00552   0.00552   90.00000   0.00000   0.00150    11   87   88      4
    88   0.00000   0.00000   0.00000   0.00552   90.00000   0.00000   0.00150    12   88   89      4
    89   0.00000   0.00000   0.00552   0.00552   90.00000   0.00000   0.00150    13   89   90      4
    90   0.00000   0.00000   0.01104   0.00552   90.00000   0.00000   0.00150    14   90   91      4
    91   0.00000   0.00000   0.01656   0.00552   90.00000   0.00000   0.00150    15   91   92      4
    92   0.00000   0.00000   0.02208   0.00552   90.00000   0.00000   0.00150    16   92   93      4
    93   0.00000   0.00000   0.02760   0.00552   90.00000   0.00000   0.00150    17   93   94      4
    94   0.00000   0.00000   0.03312   0.00552   90.00000   0.00000   0.00150    18   94   95      4
    95   0.00000   0.00000   0.03864   0.00552   90.00000   0.00000   0.00150    19   95   96      4
    96   0.00000   0.00000   0.04416   0.00552   90.00000   0.00000   0.00150    20   96   97      4
    97   0.00000   0.00000   0.04968   0.00552   90.00000   0.00000   0.00150    21   97   98      4
    98   0.00000   0.00000   0.05520   0.00552   90.00000   0.00000   0.00150    22   98   99      4
    99   0.00000   0.00000   0.06072   0.00552   90.00000   0.00000   0.00150    23   99  100      4
   100   0.00000   0.00000   0.06624   0.00552   90.00000   0.00000   0.00150    24  100  -25      4






 ***** DATA CARD NO.  1   FR   0     1     0     0  1.00000E+03  0.00000E+00  0.00000E+00  0.00000E+00  0.00000E+00  0.00000E+00
 ***** DATA CARD NO.  2   EX   1     1     1     0  9.00000E+01  0.00000E+00  0.00000E+00  0.00000E+00  0.00000E+00  0.00000E+00
 ***** DATA CARD NO.  3   XQ   0     0     0     0  0.00000E+00  0.00000E+00  0.00000E+00  0.00000E+00  0.00000E+00  0.00000E+00




                                 - - - - - - FREQUENCY - - - - - -

                                    FREQUENCY= 1.0000E+03 MHZ
                                    WAVELENGTH= 2.9979E-01 METERS




                    APPROXIMATE INTEGRATION EMPLOYED FOR SEGMENTS MORE THAN   1.000 WAVELENGTHS APART



                               - - - STRUCTURE IMPEDANCE LOADING - - -

                                   THIS STRUCTURE IS NOT LOADED



                                  - - - ANTENNA ENVIRONMENT - - -

                                            FREE SPACE



                                - - - MATRIX TIMING - - -

                        FILL=    0.130 SEC.,  FACTOR=    0.010 SEC.



                                        - - - EXCITATION - - -

    PLANE WAVE    THETA=  90.00 DEG,  PHI=   0.00 DEG,  ETA=   0.00 DEG,  TYPE -LINEAR=  AXIAL RATIO= 0.000



                             - - - CURRENTS AND LOCATION - - -

                                 DISTANCES IN WAVELENGTHS


  SEG.  TAG    COORD. OF SEG. CENTER     SEG.            - - - CURRENT (AMPS) - - -
  NO.   NO.     X        Y        Z      LENGTH     REAL        IMAG.       MAG.        PHASE
     1    1   0.0000   0.0000  -0.2210  0.01841  -4.1156E-05 -4.7428E-05  6.2795E-05 -130.950
     2    1   0.0000   0.0000  -0.2025  0.01841  -8.0478E-05 -9.2657E-05  1.2273E-04 -130.976
     3    1   0.0000   0.0000  -0.1841  0.01841  -1.0448E-04 -1.2020E-04  1.5926E-04 -130.998
     4    1   0.0000   0.0000  -0.1657  0.01841  -1.2211E-04 -1.4040E-04  1.8607E-04 -131.014
     5    1   0.0000   0.0000  -0.1473  0.01841  -1.3484E-04 -1.5497E-04  2.0542E-04 -131.025
     6    1   0.0000   0.0000  -0.1289  0.01841  -1.4356E-04 -1.6496E-04  2.1868E-04 -131.031
     7    1   0.0000   0.0000  -0.1105  0.01841  -1.4888E-04 -1.7108E-04  2.2679E-04 -131.031
     8    1   0.0000   0.0000  -0.0921  0.01841  -1.5128E-04 -1.7387E-04  2.3047E-04 -131.026
     9    1   0.0000   0.0000  -0.0737  0.01841  -1.5116E-04 -1.7380E-04  2.3034E-04 -131.014
    10    1   0.0000   0.0000  -0.0552  0.01841  -1.4886E-04 -1.7126E-04  2.2691E-04 -130.996
    11    1   0.0000   0.0000  -0.0368  0.01841  -1.4468E-04 -1.6661E-04  2.2066E-04 -130.971
    12    1   0.0000   0.0000  -0.0184  0.01841  -1.3892E-04 -1.6016E-04  2.1201E-04 -130.939
    13    1   0.0000   0.0000   0.0000  0.01841  -1.3183E-04 -1.5219E-04  2.0135E-04 -130.899
    14    1   0.0000   0.0000   0.0184  0.01841  -1.2363E-04 -1.4297E-04  1.8901E-04 -130.850
    15    1   0.0000   0.0000   0.0368  0.01841  -1.1455E-04 -1.3275E-04  1.7534E-04 -130.793
    16    1   0.0000   0.0000   0.0552  0.01841  -1.0480E-04 -1.2173E-04  1.6062E-04 -130.725
    17    1   0.0000   0.0000   0.0737  0.01841  -9.4539E-05 -1.1012E-04  1.4513E-04 -130.647
    18    1   0.0000   0.0000   0.0921  0.01841  -8.3949E-05 -9.8093E-05  1.2911E-04 -130.557
    19    1   0.0000   0.0000   0.1105  0.01841  -7.3173E-05 -8.5814E-05  1.1278E-04 -130.454
    20    1   0.0000   0.0000   0.1289  0.01841  -6.2343E-05 -7.3415E-05  9.6314E-05 -130.337
    21    1   0.0000   0.0000   0.1473  0.01841  -5.1567E-05 -6.1012E-05  7.9885E-05 -130.205
    22    1   0.0000   0.0000   0.1657  0.01841  -4.0935E-05 -4.8690E-05  6.3611E-05 -130.054
    23    1   0.0000   0.0000   0.1841  0.01841  -3.0486E-05 -3.6482E-05  4.7543E-05 -129.884
    24    1   0.0000   0.0000   0.2025  0.01841  -2.0368E-05 -2.4545E-05  3.1895E-05 -129.687
    25    1   0.0000   0.0000   0.2210  0.01841  -9.9218E-06 -1.2050E-05  1.5609E-05 -129.467
    26    2   0.0000   0.0000  -0.2210  0.01841  -4.1156E-05 -4.7428E-05  6.2795E-05 -130.950
    27    2   0.0000   0.0000  -0.2025  0.01841  -8.0478E-05 -9.2657E-05  1.2273E-04 -130.976
    28    2   0.0000   0.0000  -0.1841  0.01841  -1.0448E-04 -1.2020E-04  1.5926E-04 -130.998
    29    2   0.0000   0.0000  -0.1657  0.01841  -1.2211E-04 -1.4040E-04  1.8607E-04 -131.014
    30    2   0.0000   0.0000  -0.1473  0.01841  -1.3484E-04 -1.5497E-04  2.0542E-04 -131.025
    31    2   0.0000   0.0000  -0.1289  0.01841  -1.4356E-04 -1.6496E-04  2.1868E-04 -131.031
    32    2   0.0000   0.0000  -0.1105  0.01841  -1.4888E-04 -1.7108E-04  2.2679E-04 -131.031
    33    2   0.0000   0.0000  -0.0921  0.01841  -1.5128E-04 -1.7387E-04  2.3047E-04 -131.026
    34    2   0.0000   0.0000  -0.0737  0.01841  -1.5116E-04 -1.7380E-04  2.3034E-04 -131.014
    35    2   0.0000   0.0000  -0.0552  0.01841  -1.4886E-04 -1.7126E-04  2.2691E-04 -130.996
    36    2   0.0000   0.0000  -0.0368  0.01841  -1.4468E-04 -1.6661E-04  2.2066E-04 -130.971
    37    2   0.0000   0.0000  -0.0184  0.01841  -1.3892E-04 -1.6016E-04  2.1201E-04 -130.939
    38    2   0.0000   0.0000   0.0000  0.01841  -1.3183E-04 -1.5219E-04  2.0135E-04 -130.899
    39    2   0.0000   0.0000   0.0184  0.01841  -1.2363E-04 -1.4297E-04  1.8901E-04 -130.850
    40    2   0.0000   0.0000   0.0368  0.01841  -1.1455E-04 -1.3275E-04  1.7534E-04 -130.793
    41    2   0.0000   0.0000   0.0552  0.01841  -1.0480E-04 -1.2173E-04  1.6062E-04 -130.725
    42    2   0.0000   0.0000   0.0737  0.01841  -9.4539E-05 -1.1012E-04  1.4513E-04 -130.647
    43    2   0.0000   0.0000   0.0921  0.01841  -8.3949E-05 -9.8093E-05  1.2911E-04 -130.557
    44    2   0.0000   0.0000   0.1105  0.01841  -7.3173E-05 -8.5814E-05  1.1278E-04 -130.454
    45    2   0.0000   0.0000   0.1289  0.01841  -6.2343E-05 -7.3415E-05  9.6314E-05 -130.337
    46    2   0.0000   0.0000   0.1473  0.01841  -5.1567E-05 -6.1012E-05  7.9885E-05 -130.205
    47    2   0.0000   0.0000   0.1657  0.01841  -4.0935E-05 -4.8690E-05  6.3611E-05 -130.054
    48    2   0.0000   0.0000   0.1841  0.01841  -3.0486E-05 -3.6482E-05  4.7543E-05 -129.884
    49    2   0.0000   0.0000   0.2025  0.01841  -2.0368E-05 -2.4545E-05  3.1895E-05 -129.687
    50    2   0.0000   0.0000   0.2210  0.01841  -9.9218E-06 -1.2050E-05  1.5609E-05 -129.467
    51    3   0.0000   0.0000  -0.2210  0.01841  -4.1156E-05 -4.7428E-05  6.2795E-05 -130.950
    52    3   0.0000   0.0000  -0.2025  0.01841  -8.0478E-05 -9.2657E-05  1.2273E-04 -130.976
    53    3   0.0000   0.0000  -0.1841  0.01841  -1.0448E-04 -1.2020E-04  1.5926E-04 -130.998
    54    3   0.0000   0.0000  -0.1657  0.01841  -1.2211E-04 -1.4040E-04  1.8607E-04 -131.014
    55    3   0.0000   0.0000  -0.1473  0.01841  -1.3484E-04 -1.5497E-04  2.0542E-04 -131.025
    56    3   0.0000   0.0000  -0.1289  0.01841  -1.4356E-04 -1.6496E-04  2.1868E-04 -131.031
    57    3   0.0000   0.0000  -0.1105  0.01841  -1.4888E-04 -1.7108E-04  2.2679E-04 -131.031
    58    3   0.0000   0.0000  -0.0921  0.01841  -1.5128E-04 -1.7387E-04  2.3047E-04 -131.026
    59    3   0.0000   0.0000  -0.0737  0.01841  -1.5116E-04 -1.7380E-04  2.3034E-04 -131.014
    60    3   0.0000   0.0000  -0.0552  0.01841  -1.4886E-04 -1.7126E-04  2.2691E-04 -130.996
    61    3   0.0000   0.0000  -0.0368  0.01841  -1.4468E-04 -1.6661E-04  2.2066E-04 -130.971
    62    3   0.0000   0.0000  -0.0184  0.01841  -1.3892E-04 -1.6016E-04  2.1201E-04 -130.939
    63    3   0.0000   0.0000   0.0000  0.01841  -1.3183E-04 -1.5219E-04  2.0135E-04 -130.899
    64    3   0.0000   0.0000   0.0184  0.01841  -1.2363E-04 -1.4297E-04  1.8901E-04 -130.850
    65    3   0.0000   0.0000   0.0368  0.01841  -1.1455E-04 -1.3275E-04  1.7534E-04 -130.793
    66    3   0.0000   0.0000   0.0552  0.01841  -1.0480E-04 -1.2173E-04  1.6062E-04 -130.725
    67    3   0.0000   0.0000   0.0737  0.01841  -9.4539E-05 -1.1012E-04  1.4513E-04 -130.647
    68    3   0.0000   0.0000   0.0921  0.01841  -8.3949E-05 -9.8093E-05  1.2911E-04 -130.557
    69    3   0.0000   0.0000   0.1105  0.01841  -7.3173E-05 -8.5814E-05  1.1278E-04 -130.454
    70    3   0.0000   0.0000   0.1289  0.01841  -6.2343E-05 -7.3415E-05  9.6314E-05 -130.337
    71    3   0.0000   0.0000   0.1473  0.01841  -5.1567E-05 -6.1012E-05  7.9885E-05 -130.205
    72    3   0.0000   0.0000   0.1657  0.01841  -4.0935E-05 -4.8690E-05  6.3611E-05 -130.054
    73    3   0.0000   0.0000   0.1841  0.01841  -3.0486E-05 -3.6482E-05  4.7543E-05 -129.884
    74    3   0.0000   0.0000   0.2025  0.01841  -2.0368E-05 -2.4545E-05  3.1895E-05 -129.687
    75    3   0.0000   0.0000   0.2210  0.01841  -9.9218E-06 -1.2050E-05  1.5609E-05 -129.467
    76    4   0.0000   0.0000  -0.2210  0.01841  -4.1156E-05 -4.7428E-05  6.2795E-05 -130.950
    77    4   0.0000   0.0000  -0.2025  0.01841  -8.0478E-05 -9.2657E-05  1.2273E-04 -130.976
    78    4   0.0000   0.0000  -0.1841  0.01841  -1.0448E-04 -1.2020E-04  1.5926E-04 -130.998
    79    4   0.0000   0.0000  -0.1657  0.01841  -1.2211E-04 -1.4040E-04  1.8607E-04 -131.014
    80    4   0.0000   0.0000  -0.1473  0.01841  -1.3484E-04 -1.5497E-04  2.0542E-04 -131.025
    81    4   0.0000   0.0000  -0.1289  0.01841  -1.4356E-04 -1.6496E-04  2.1868E-04 -131.031
    82    4   0.0000   0.0000  -0.1105  0.01841  -1.4888E-04 -1.7108E-04  2.2679E-04 -131.031
    83    4   0.0000   0.0000  -0.0921  0.01841  -1.5128E-04 -1.7387E-04  2.3047E-04 -131.026
    84    4   0.0000   0.0000  -0.0737  0.01841  -1.5116E-04 -1.7380E-04  2.3034E-04 -131.014
    85    4   0.0000   0.0000  -0.0552  0.01841  -1.4886E-04 -1.7126E-04  2.2691E-04 -130.996
    86    4   0.0000   0.0000  -0.0368  0.01841  -1.4468E-04 -1.6661E-04  2.2066E-04 -130.971
    87    4   0.0000   0.0000  -0.0184  0.01841  -1.3892E-04 -1.6016E-04  2.1201E-04 -130.939
    88    4   0.0000   0.0000   0.0000  0.01841  -1.3183E-04 -1.5219E-04  2.0135E-04 -130.899
    89    4   0.0000   0.0000   0.0184  0.01841  -1.2363E-04 -1.4297E-04  1.8901E-04 -130.850
    90    4   0.0000   0.0000   0.0368  0.01841  -1.1455E-04 -1.3275E-04  1.7534E-04 -130.793
    91    4   0.0000   0.0000   0.0552  0.01841  -1.0480E-04 -1.2173E-04  1.6062E-04 -130.725
    92    4   0.0000   0.0000   0.0737  0.01841  -9.4539E-05 -1.1012E-04  1.4513E-04 -130.647
    93    4   0.0000   0.0000   0.0921  0.01841  -8.3949E-05 -9.8093E-05  1.2911E-04 -130.557
    94    4   0.0000   0.0000   0.1105  0.01841  -7.3173E-05 -8.5814E-05  1.1278E-04 -130.454
    95    4   0.0000   0.0000   0.1289  0.01841  -6.2343E-05 -7.3415E-05  9.6314E-05 -130.337
    96    4   0.0000   0.0000   0.1473  0.01841  -5.1567E-05 -6.1012E-05  7.9885E-05 -130.205
    97    4   0.0000   0.0000   0.1657  0.01841  -4.0935E-05 -4.8690E-05  6.3611E-05 -130.054
    98    4   0.0000   0.0000   0.1841  0.01841  -3.0486E-05 -3.6482E-05  4.7543E-05 -129.884
    99    4   0.0000   0.0000   0.2025  0.01841  -2.0368E-05 -2.4545E-05  3.1895E-05 -129.687
   100    4   0.0000   0.0000   0.2210  0.01841  -9.9218E-06 -1.2050E-05  1.5609E-05 -129.467






 ***** DATA CARD NO.  4   EN   0     0     0     0  0.00000E+00  0.00000E+00  0.00000E+00  0.00000E+00  0.00000E+00  0.00000E+00

 RUN TIME =     0.160
