1



                                 *********************************************

                                    NUMERICAL ELECTROMAGNETICS CODE (NEC-2D)

                                 *********************************************




                                     - - - - COMMENTS - - - -


                          TESTDIP2.NEC: 1GHz Half-Wave Dipole #2                                       




                                 - - - STRUCTURE SPECIFICATION - - -

                                     COORDINATES MUST BE INPUT IN
                                     METERS OR BE SCALED TO METERS
                                     BEFORE STRUCTURE INPUT IS ENDED


  WIRE                                                                               NO. OF    FIRST  LAST     TAG
  NO.        X1         Y1         Z1          X2         Y2         Z2      RADIUS   SEG.     SEG.   SEG.     NO.
     1    0.00000    0.00000   -0.07500     0.00000    0.00000    0.07500    0.00100     21        1    21       1

   TOTAL SEGMENTS USED=   21     NO. SEG. IN A SYMMETRIC CELL=   21     SYMMETRY FLAG=  0


         - MULTIPLE WIRE JUNCTIONS -
 JUNCTION    SEGMENTS  (- FOR END 1, + FOR END 2)
  NONE




                                 - - - - SEGMENTATION DATA - - - -

                                        COORDINATES IN METERS

                         I+ AND I- INDICATE THE SEGMENTS BEFORE AND AFTER I


  SEG.   COORDINATES OF SEG. CENTER     SEG.     ORIENTATION ANGLES    WIRE    CONNECTION DATA   TAG
  NO.       X         Y         Z       LENGTH     ALPHA     BETA      RADIUS    I-   I    I+    NO.
     1   0.00000   0.00000  -0.07143   0.00714   90.00000   0.00000   0.00100     0    1    2      1
     2   0.00000   0.00000  -0.06429   0.00714   90.00000   0.00000   0.00100     1    2    3      1
     3   0.00000   0.00000  -0.05714   0.00714   90.00000   0.00000   0.00100     2    3    4      1
     4   0.00000   0.00000  -0.05000   0.00714   90.00000   0.00000   0.00100     3    4    5      1
     5   0.00000   0.00000  -0.04286   0.00714   90.00000   0.00000   0.00100     4    5    6      1
     6   0.00000   0.00000  -0.03571   0.00714   90.00000   0.00000   0.00100     5    6    7      1
     7   0.00000   0.00000  -0.02857   0.00714   90.00000   0.00000   0.00100     6    7    8      1
     8   0.00000   0.00000  -0.02143   0.00714   90.00000   0.00000   0.00100     7    8    9      1
     9   0.00000   0.00000  -0.01429   0.00714   90.00000   0.00000   0.00100     8    9   10      1
    10   0.00000   0.00000  -0.00714   0.00714   90.00000   0.00000   0.00100     9   10   11      1
    11   0.00000   0.00000   0.00000   0.00714   90.00000   0.00000   0.00100    10   11   12      1
    12   0.00000   0.00000   0.00714   0.00714   90.00000   0.00000   0.00100    11   12   13      1
    13   0.00000   0.00000   0.01429   0.00714   90.00000   0.00000   0.00100    12   13   14      1
    14   0.00000   0.00000   0.02143   0.00714   90.00000   0.00000   0.00100    13   14   15      1
    15   0.00000   0.00000   0.02857   0.00714   90.00000   0.00000   0.00100    14   15   16      1
    16   0.00000   0.00000   0.03571   0.00714   90.00000   0.00000   0.00100    15   16   17      1
    17   0.00000   0.00000   0.04286   0.00714   90.00000   0.00000   0.00100    16   17   18      1
    18   0.00000   0.00000   0.05000   0.00714   90.00000   0.00000   0.00100    17   18   19      1
    19   0.00000   0.00000   0.05714   0.00714   90.00000   0.00000   0.00100    18   19   20      1
    20   0.00000   0.00000   0.06429   0.00714   90.00000   0.00000   0.00100    19   20   21      1
    21   0.00000   0.00000   0.07143   0.00714   90.00000   0.00000   0.00100    20   21    0      1






 ***** DATA CARD NO.  1   EX   0     1    11     0  1.00000E+00  0.00000E+00  0.00000E+00  0.00000E+00  0.00000E+00  0.00000E+00
 ***** DATA CARD NO.  2   FR   0     1     0     0  1.00000E+03  0.00000E+00  0.00000E+00  0.00000E+00  0.00000E+00  0.00000E+00
 ***** DATA CARD NO.  3   RP   0   180     1     0  0.00000E+00  0.00000E+00  1.00000E+00  0.00000E+00  1.00000E+00  0.00000E+00




                                 - - - - - - FREQUENCY - - - - - -

                                    FREQUENCY= 1.0000E+03 MHZ
                                    WAVELENGTH= 2.9979E-01 METERS




                    APPROXIMATE INTEGRATION EMPLOYED FOR SEGMENTS MORE THAN   1.000 WAVELENGTHS APART



                               - - - STRUCTURE IMPEDANCE LOADING - - -

                                   THIS STRUCTURE IS NOT LOADED



                                  - - - ANTENNA ENVIRONMENT - - -

                                            FREE SPACE



                                - - - MATRIX TIMING - - -

                        FILL=    0.008 SEC.,  FACTOR=    0.000 SEC.



                                          - - - ANTENNA INPUT PARAMETERS - - -

   TAG   SEG.    VOLTAGE (VOLTS)         CURRENT (AMPS)         IMPEDANCE (OHMS)        ADMITTANCE (MHOS)      POWER
   NO.   NO.    REAL        IMAG.       REAL        IMAG.       REAL        IMAG.       REAL        IMAG.     (WATTS)
     1    11 1.00000E+00 0.00000E+00 8.27181E-03-4.55684E-03 9.27462E+01 5.10928E+01 8.27181E-03-4.55684E-03 4.13590E-03



                             - - - CURRENTS AND LOCATION - - -

                                 DISTANCES IN WAVELENGTHS


  SEG.  TAG    COORD. OF SEG. CENTER     SEG.            - - - CURRENT (AMPS) - - -
  NO.   NO.     X        Y        Z      LENGTH     REAL        IMAG.       MAG.        PHASE
     1    1   0.0000   0.0000  -0.2383  0.02383   1.0792E-03 -9.2685E-04  1.4226E-03  -40.658
     2    1   0.0000   0.0000  -0.2144  0.02383   2.4147E-03 -2.0278E-03  3.1532E-03  -40.022
     3    1   0.0000   0.0000  -0.1906  0.02383   3.5570E-03 -2.9154E-03  4.5991E-03  -39.339
     4    1   0.0000   0.0000  -0.1668  0.02383   4.5938E-03 -3.6685E-03  5.8788E-03  -38.611
     5    1   0.0000   0.0000  -0.1430  0.02383   5.5220E-03 -4.2860E-03  6.9901E-03  -37.817
     6    1   0.0000   0.0000  -0.1191  0.02383   6.3327E-03 -4.7610E-03  7.9227E-03  -36.936
     7    1   0.0000   0.0000  -0.0953  0.02383   7.0147E-03 -5.0847E-03  8.6637E-03  -35.937
     8    1   0.0000   0.0000  -0.0715  0.02383   7.5574E-03 -5.2467E-03  9.2002E-03  -34.770
     9    1   0.0000   0.0000  -0.0477  0.02383   7.9520E-03 -5.2339E-03  9.5198E-03  -33.352
    10    1   0.0000   0.0000  -0.0238  0.02383   8.1915E-03 -4.9976E-03  9.5957E-03  -31.387
    11    1   0.0000   0.0000   0.0000  0.02383   8.2718E-03 -4.5568E-03  9.4439E-03  -28.850
    12    1   0.0000   0.0000   0.0238  0.02383   8.1915E-03 -4.9976E-03  9.5957E-03  -31.387
    13    1   0.0000   0.0000   0.0477  0.02383   7.9520E-03 -5.2339E-03  9.5198E-03  -33.352
    14    1   0.0000   0.0000   0.0715  0.02383   7.5574E-03 -5.2467E-03  9.2002E-03  -34.770
    15    1   0.0000   0.0000   0.0953  0.02383   7.0147E-03 -5.0847E-03  8.6637E-03  -35.937
    16    1   0.0000   0.0000   0.1191  0.02383   6.3327E-03 -4.7610E-03  7.9227E-03  -36.936
    17    1   0.0000   0.0000   0.1430  0.02383   5.5220E-03 -4.2860E-03  6.9901E-03  -37.817
    18    1   0.0000   0.0000   0.1668  0.02383   4.5938E-03 -3.6685E-03  5.8788E-03  -38.611
    19    1   0.0000   0.0000   0.1906  0.02383   3.5570E-03 -2.9154E-03  4.5991E-03  -39.339
    20    1   0.0000   0.0000   0.2144  0.02383   2.4147E-03 -2.0278E-03  3.1532E-03  -40.022
    21    1   0.0000   0.0000   0.2383  0.02383   1.0792E-03 -9.2685E-04  1.4226E-03  -40.658



                                        - - - POWER BUDGET - - -

                                           INPUT POWER   = 4.1359E-03 WATTS
                                           RADIATED POWER= 4.1359E-03 WATTS
                                           STRUCTURE LOSS= 0.0000E+00 WATTS
                                           NETWORK LOSS  = 0.0000E+00 WATTS
                                           EFFICIENCY    = 100.00 PERCENT



                                                - - - RADIATION PATTERNS - - -
                                                      RANGE= 1.000000E+00 METERS
                                                      EXP(-JKR)/R= 1.00000E+00 AT PHASE-120.83 DEGREES


  - - ANGLES - -           - POWER GAINS -       - - - POLARIZATION - - -    - - - E(THETA) - - -    - - - E(PHI) - - -
  THETA     PHI        MAJOR   MINOR   TOTAL      AXIAL     TILT   SENSE     MAGNITUDE    PHASE      MAGNITUDE    PHASE 
 DEGREES  DEGREES       DB      DB      DB        RATIO     DEG.              VOLTS/M    DEGREES      VOLTS/M    DEGREES
    0.00     0.00    -999.99 -999.99 -999.99    0.00000     0.00            0.00000E+00  -120.83    0.00000E+00  -120.83
    1.00     0.00     -35.36 -999.99  -35.36    0.00000     0.00  LINEAR    8.49983E-03   -65.32    0.00000E+00  -120.83
    2.00     0.00     -29.33 -999.99  -29.33    0.00000     0.00  LINEAR    1.70015E-02   -65.32    0.00000E+00  -120.83
    3.00     0.00     -25.81 -999.99  -25.81    0.00000     0.00  LINEAR    2.55070E-02   -65.32    0.00000E+00  -120.83
    4.00     0.00     -23.31 -999.99  -23.31    0.00000     0.00  LINEAR    3.40180E-02   -65.32    0.00000E+00  -120.83
    5.00     0.00     -21.37 -999.99  -21.37    0.00000     0.00  LINEAR    4.25365E-02   -65.32    0.00000E+00  -120.83
    6.00     0.00     -19.78 -999.99  -19.78    0.00000     0.00  LINEAR    5.10641E-02   -65.33    0.00000E+00  -120.83
    7.00     0.00     -18.44 -999.99  -18.44    0.00000     0.00  LINEAR    5.96025E-02   -65.33    0.00000E+00  -120.83
    8.00     0.00     -17.27 -999.99  -17.27    0.00000     0.00  LINEAR    6.81536E-02   -65.33    0.00000E+00  -120.83
    9.00     0.00     -16.25 -999.99  -16.25    0.00000     0.00  LINEAR    7.67188E-02   -65.34    0.00000E+00  -120.83
   10.00     0.00     -15.33 -999.99  -15.33    0.00000     0.00  LINEAR    8.52997E-02   -65.35    0.00000E+00  -120.83
   11.00     0.00     -14.49 -999.99  -14.49    0.00000     0.00  LINEAR    9.38976E-02   -65.35    0.00000E+00  -120.83
   12.00     0.00     -13.73 -999.99  -13.73    0.00000     0.00  LINEAR    1.02514E-01   -65.36    0.00000E+00  -120.83
   13.00     0.00     -13.03 -999.99  -13.03    0.00000     0.00  LINEAR    1.11150E-01   -65.37    0.00000E+00  -120.83
   14.00     0.00     -12.37 -999.99  -12.37    0.00000     0.00  LINEAR    1.19807E-01   -65.37    0.00000E+00  -120.83
   15.00     0.00     -11.77 -999.99  -11.77    0.00000     0.00  LINEAR    1.28485E-01   -65.38    0.00000E+00  -120.83
   16.00     0.00     -11.20 -999.99  -11.20    0.00000     0.00  LINEAR    1.37186E-01   -65.39    0.00000E+00  -120.83
   17.00     0.00     -10.66 -999.99  -10.66    0.00000     0.00  LINEAR    1.45910E-01   -65.40    0.00000E+00  -120.83
   18.00     0.00     -10.16 -999.99  -10.16    0.00000     0.00  LINEAR    1.54657E-01   -65.41    0.00000E+00  -120.83
   19.00     0.00      -9.68 -999.99   -9.68    0.00000     0.00  LINEAR    1.63429E-01   -65.42    0.00000E+00  -120.83
   20.00     0.00      -9.22 -999.99   -9.22    0.00000     0.00  LINEAR    1.72225E-01   -65.43    0.00000E+00  -120.83
   21.00     0.00      -8.79 -999.99   -8.79    0.00000     0.00  LINEAR    1.81046E-01   -65.44    0.00000E+00  -120.83
   22.00     0.00      -8.37 -999.99   -8.37    0.00000     0.00  LINEAR    1.89890E-01   -65.46    0.00000E+00  -120.83
   23.00     0.00      -7.98 -999.99   -7.98    0.00000     0.00  LINEAR    1.98758E-01   -65.47    0.00000E+00  -120.83
   24.00     0.00      -7.60 -999.99   -7.60    0.00000     0.00  LINEAR    2.07650E-01   -65.48    0.00000E+00  -120.83
   25.00     0.00      -7.23 -999.99   -7.23    0.00000     0.00  LINEAR    2.16563E-01   -65.49    0.00000E+00  -120.83
   26.00     0.00      -6.88 -999.99   -6.88    0.00000     0.00  LINEAR    2.25499E-01   -65.51    0.00000E+00  -120.83
   27.00     0.00      -6.54 -999.99   -6.54    0.00000     0.00  LINEAR    2.34454E-01   -65.52    0.00000E+00  -120.83
   28.00     0.00      -6.22 -999.99   -6.22    0.00000     0.00  LINEAR    2.43428E-01   -65.53    0.00000E+00  -120.83
   29.00     0.00      -5.90 -999.99   -5.90    0.00000     0.00  LINEAR    2.52420E-01   -65.55    0.00000E+00  -120.83
   30.00     0.00      -5.60 -999.99   -5.60    0.00000     0.00  LINEAR    2.61426E-01   -65.56    0.00000E+00  -120.83
   31.00     0.00      -5.30 -999.99   -5.30    0.00000     0.00  LINEAR    2.70446E-01   -65.58    0.00000E+00  -120.83
   32.00     0.00      -5.02 -999.99   -5.02    0.00000     0.00  LINEAR    2.79476E-01   -65.59    0.00000E+00  -120.83
   33.00     0.00      -4.74 -999.99   -4.74    0.00000     0.00  LINEAR    2.88515E-01   -65.60    0.00000E+00  -120.83
   34.00     0.00      -4.47 -999.99   -4.47    0.00000     0.00  LINEAR    2.97559E-01   -65.62    0.00000E+00  -120.83
   35.00     0.00      -4.21 -999.99   -4.21    0.00000     0.00  LINEAR    3.06605E-01   -65.63    0.00000E+00  -120.83
   36.00     0.00      -3.96 -999.99   -3.96    0.00000     0.00  LINEAR    3.15649E-01   -65.65    0.00000E+00  -120.83
   37.00     0.00      -3.71 -999.99   -3.71    0.00000     0.00  LINEAR    3.24689E-01   -65.67    0.00000E+00  -120.83
   38.00     0.00      -3.48 -999.99   -3.48    0.00000     0.00  LINEAR    3.33721E-01   -65.68    0.00000E+00  -120.83
   39.00     0.00      -3.24 -999.99   -3.24    0.00000     0.00  LINEAR    3.42739E-01   -65.70    0.00000E+00  -120.83
   40.00     0.00      -3.02 -999.99   -3.02    0.00000     0.00  LINEAR    3.51741E-01   -65.71    0.00000E+00  -120.83
   41.00     0.00      -2.80 -999.99   -2.80    0.00000     0.00  LINEAR    3.60720E-01   -65.73    0.00000E+00  -120.83
   42.00     0.00      -2.59 -999.99   -2.59    0.00000     0.00  LINEAR    3.69674E-01   -65.74    0.00000E+00  -120.83
   43.00     0.00      -2.38 -999.99   -2.38    0.00000     0.00  LINEAR    3.78595E-01   -65.76    0.00000E+00  -120.83
   44.00     0.00      -2.18 -999.99   -2.18    0.00000     0.00  LINEAR    3.87480E-01   -65.77    0.00000E+00  -120.83
   45.00     0.00      -1.98 -999.99   -1.98    0.00000     0.00  LINEAR    3.96323E-01   -65.79    0.00000E+00  -120.83
   46.00     0.00      -1.79 -999.99   -1.79    0.00000     0.00  LINEAR    4.05117E-01   -65.80    0.00000E+00  -120.83
   47.00     0.00      -1.61 -999.99   -1.61    0.00000     0.00  LINEAR    4.13858E-01   -65.82    0.00000E+00  -120.83
   48.00     0.00      -1.43 -999.99   -1.43    0.00000     0.00  LINEAR    4.22538E-01   -65.83    0.00000E+00  -120.83
   49.00     0.00      -1.25 -999.99   -1.25    0.00000     0.00  LINEAR    4.31152E-01   -65.85    0.00000E+00  -120.83
   50.00     0.00      -1.08 -999.99   -1.08    0.00000     0.00  LINEAR    4.39694E-01   -65.86    0.00000E+00  -120.83
   51.00     0.00      -0.92 -999.99   -0.92    0.00000     0.00  LINEAR    4.48155E-01   -65.88    0.00000E+00  -120.83
   52.00     0.00      -0.75 -999.99   -0.75    0.00000     0.00  LINEAR    4.56531E-01   -65.89    0.00000E+00  -120.83
   53.00     0.00      -0.60 -999.99   -0.60    0.00000     0.00  LINEAR    4.64813E-01   -65.91    0.00000E+00  -120.83
   54.00     0.00      -0.45 -999.99   -0.45    0.00000     0.00  LINEAR    4.72995E-01   -65.92    0.00000E+00  -120.83
   55.00     0.00      -0.30 -999.99   -0.30    0.00000     0.00  LINEAR    4.81069E-01   -65.93    0.00000E+00  -120.83
   56.00     0.00      -0.16 -999.99   -0.16    0.00000     0.00  LINEAR    4.89029E-01   -65.95    0.00000E+00  -120.83
   57.00     0.00      -0.02 -999.99   -0.02    0.00000     0.00  LINEAR    4.96866E-01   -65.96    0.00000E+00  -120.83
   58.00     0.00       0.11 -999.99    0.11    0.00000     0.00  LINEAR    5.04574E-01   -65.97    0.00000E+00  -120.83
   59.00     0.00       0.24 -999.99    0.24    0.00000     0.00  LINEAR    5.12144E-01   -65.99    0.00000E+00  -120.83
   60.00     0.00       0.37 -999.99    0.37    0.00000     0.00  LINEAR    5.19570E-01   -66.00    0.00000E+00  -120.83
   61.00     0.00       0.49 -999.99    0.49    0.00000     0.00  LINEAR    5.26844E-01   -66.01    0.00000E+00  -120.83
   62.00     0.00       0.61 -999.99    0.61    0.00000     0.00  LINEAR    5.33957E-01   -66.02    0.00000E+00  -120.83
   63.00     0.00       0.72 -999.99    0.72    0.00000     0.00  LINEAR    5.40904E-01   -66.03    0.00000E+00  -120.83
   64.00     0.00       0.83 -999.99    0.83    0.00000     0.00  LINEAR    5.47675E-01   -66.05    0.00000E+00  -120.83
   65.00     0.00       0.93 -999.99    0.93    0.00000     0.00  LINEAR    5.54264E-01   -66.06    0.00000E+00  -120.83
   66.00     0.00       1.03 -999.99    1.03    0.00000     0.00  LINEAR    5.60664E-01   -66.07    0.00000E+00  -120.83
   67.00     0.00       1.13 -999.99    1.13    0.00000     0.00  LINEAR    5.66866E-01   -66.08    0.00000E+00  -120.83
   68.00     0.00       1.22 -999.99    1.22    0.00000     0.00  LINEAR    5.72865E-01   -66.09    0.00000E+00  -120.83
   69.00     0.00       1.30 -999.99    1.30    0.00000     0.00  LINEAR    5.78652E-01   -66.10    0.00000E+00  -120.83
   70.00     0.00       1.39 -999.99    1.39    0.00000     0.00  LINEAR    5.84221E-01   -66.11    0.00000E+00  -120.83
   71.00     0.00       1.47 -999.99    1.47    0.00000     0.00  LINEAR    5.89566E-01   -66.11    0.00000E+00  -120.83
   72.00     0.00       1.54 -999.99    1.54    0.00000     0.00  LINEAR    5.94679E-01   -66.12    0.00000E+00  -120.83
   73.00     0.00       1.61 -999.99    1.61    0.00000     0.00  LINEAR    5.99554E-01   -66.13    0.00000E+00  -120.83
   74.00     0.00       1.68 -999.99    1.68    0.00000     0.00  LINEAR    6.04186E-01   -66.14    0.00000E+00  -120.83
   75.00     0.00       1.74 -999.99    1.74    0.00000     0.00  LINEAR    6.08569E-01   -66.14    0.00000E+00  -120.83
   76.00     0.00       1.80 -999.99    1.80    0.00000     0.00  LINEAR    6.12696E-01   -66.15    0.00000E+00  -120.83
   77.00     0.00       1.86 -999.99    1.86    0.00000     0.00  LINEAR    6.16563E-01   -66.16    0.00000E+00  -120.83
   78.00     0.00       1.91 -999.99    1.91    0.00000     0.00  LINEAR    6.20164E-01   -66.16    0.00000E+00  -120.83
   79.00     0.00       1.95 -999.99    1.95    0.00000     0.00  LINEAR    6.23495E-01   -66.17    0.00000E+00  -120.83
   80.00     0.00       1.99 -999.99    1.99    0.00000     0.00  LINEAR    6.26552E-01   -66.17    0.00000E+00  -120.83
   81.00     0.00       2.03 -999.99    2.03    0.00000     0.00  LINEAR    6.29330E-01   -66.18    0.00000E+00  -120.83
   82.00     0.00       2.07 -999.99    2.07    0.00000     0.00  LINEAR    6.31826E-01   -66.18    0.00000E+00  -120.83
   83.00     0.00       2.10 -999.99    2.10    0.00000     0.00  LINEAR    6.34036E-01   -66.18    0.00000E+00  -120.83
   84.00     0.00       2.12 -999.99    2.12    0.00000     0.00  LINEAR    6.35958E-01   -66.19    0.00000E+00  -120.83
   85.00     0.00       2.15 -999.99    2.15    0.00000     0.00  LINEAR    6.37588E-01   -66.19    0.00000E+00  -120.83
   86.00     0.00       2.16 -999.99    2.16    0.00000     0.00  LINEAR    6.38925E-01   -66.19    0.00000E+00  -120.83
   87.00     0.00       2.18 -999.99    2.18    0.00000     0.00  LINEAR    6.39967E-01   -66.19    0.00000E+00  -120.83
   88.00     0.00       2.19 -999.99    2.19    0.00000     0.00  LINEAR    6.40713E-01   -66.19    0.00000E+00  -120.83
   89.00     0.00       2.20 -999.99    2.20    0.00000     0.00  LINEAR    6.41160E-01   -66.19    0.00000E+00  -120.83
   90.00     0.00       2.20 -999.99    2.20    0.00000     0.00  LINEAR    6.41309E-01   -66.20    0.00000E+00  -120.83
   91.00     0.00       2.20 -999.99    2.20    0.00000     0.00  LINEAR    6.41160E-01   -66.19    0.00000E+00  -120.83
   92.00     0.00       2.19 -999.99    2.19    0.00000     0.00  LINEAR    6.40713E-01   -66.19    0.00000E+00  -120.83
   93.00     0.00       2.18 -999.99    2.18    0.00000     0.00  LINEAR    6.39967E-01   -66.19    0.00000E+00  -120.83
   94.00     0.00       2.16 -999.99    2.16    0.00000     0.00  LINEAR    6.38925E-01   -66.19    0.00000E+00  -120.83
   95.00     0.00       2.15 -999.99    2.15    0.00000     0.00  LINEAR    6.37588E-01   -66.19    0.00000E+00  -120.83
   96.00     0.00       2.12 -999.99    2.12    0.00000     0.00  LINEAR    6.35958E-01   -66.19    0.00000E+00  -120.83
   97.00     0.00       2.10 -999.99    2.10    0.00000     0.00  LINEAR    6.34036E-01   -66.18    0.00000E+00  -120.83
   98.00     0.00       2.07 -999.99    2.07    0.00000     0.00  LINEAR    6.31826E-01   -66.18    0.00000E+00  -120.83
   99.00     0.00       2.03 -999.99    2.03    0.00000     0.00  LINEAR    6.29330E-01   -66.18    0.00000E+00  -120.83
  100.00     0.00       1.99 -999.99    1.99    0.00000     0.00  LINEAR    6.26552E-01   -66.17    0.00000E+00  -120.83
  101.00     0.00       1.95 -999.99    1.95    0.00000     0.00  LINEAR    6.23495E-01   -66.17    0.00000E+00  -120.83
  102.00     0.00       1.91 -999.99    1.91    0.00000     0.00  LINEAR    6.20164E-01   -66.16    0.00000E+00  -120.83
  103.00     0.00       1.86 -999.99    1.86    0.00000     0.00  LINEAR    6.16563E-01   -66.16    0.00000E+00  -120.83
  104.00     0.00       1.80 -999.99    1.80    0.00000     0.00  LINEAR    6.12696E-01   -66.15    0.00000E+00  -120.83
  105.00     0.00       1.74 -999.99    1.74    0.00000     0.00  LINEAR    6.08569E-01   -66.14    0.00000E+00  -120.83
  106.00     0.00       1.68 -999.99    1.68    0.00000     0.00  LINEAR    6.04186E-01   -66.14    0.00000E+00  -120.83
  107.00     0.00       1.61 -999.99    1.61    0.00000     0.00  LINEAR    5.99554E-01   -66.13    0.00000E+00  -120.83
  108.00     0.00       1.54 -999.99    1.54    0.00000     0.00  LINEAR    5.94679E-01   -66.12    0.00000E+00  -120.83
  109.00     0.00       1.47 -999.99    1.47    0.00000     0.00  LINEAR    5.89566E-01   -66.11    0.00000E+00  -120.83
  110.00     0.00       1.39 -999.99    1.39    0.00000     0.00  LINEAR    5.84221E-01   -66.11    0.00000E+00  -120.83
  111.00     0.00       1.30 -999.99    1.30    0.00000     0.00  LINEAR    5.78652E-01   -66.10    0.00000E+00  -120.83
  112.00     0.00       1.22 -999.99    1.22    0.00000     0.00  LINEAR    5.72865E-01   -66.09    0.00000E+00  -120.83
  113.00     0.00       1.13 -999.99    1.13    0.00000     0.00  LINEAR    5.66866E-01   -66.08    0.00000E+00  -120.83
  114.00     0.00       1.03 -999.99    1.03    0.00000     0.00  LINEAR    5.60664E-01   -66.07    0.00000E+00  -120.83
  115.00     0.00       0.93 -999.99    0.93    0.00000     0.00  LINEAR    5.54264E-01   -66.06    0.00000E+00  -120.83
  116.00     0.00       0.83 -999.99    0.83    0.00000     0.00  LINEAR    5.47675E-01   -66.05    0.00000E+00  -120.83
  117.00     0.00       0.72 -999.99    0.72    0.00000     0.00  LINEAR    5.40904E-01   -66.03    0.00000E+00  -120.83
  118.00     0.00       0.61 -999.99    0.61    0.00000     0.00  LINEAR    5.33957E-01   -66.02    0.00000E+00  -120.83
  119.00     0.00       0.49 -999.99    0.49    0.00000     0.00  LINEAR    5.26844E-01   -66.01    0.00000E+00  -120.83
  120.00     0.00       0.37 -999.99    0.37    0.00000     0.00  LINEAR    5.19570E-01   -66.00    0.00000E+00  -120.83
  121.00     0.00       0.24 -999.99    0.24    0.00000     0.00  LINEAR    5.12144E-01   -65.99    0.00000E+00  -120.83
  122.00     0.00       0.11 -999.99    0.11    0.00000     0.00  LINEAR    5.04574E-01   -65.97    0.00000E+00  -120.83
  123.00     0.00      -0.02 -999.99   -0.02    0.00000     0.00  LINEAR    4.96866E-01   -65.96    0.00000E+00  -120.83
  124.00     0.00      -0.16 -999.99   -0.16    0.00000     0.00  LINEAR    4.89029E-01   -65.95    0.00000E+00  -120.83
  125.00     0.00      -0.30 -999.99   -0.30    0.00000     0.00  LINEAR    4.81069E-01   -65.93    0.00000E+00  -120.83
  126.00     0.00      -0.45 -999.99   -0.45    0.00000     0.00  LINEAR    4.72995E-01   -65.92    0.00000E+00  -120.83
  127.00     0.00      -0.60 -999.99   -0.60    0.00000     0.00  LINEAR    4.64813E-01   -65.91    0.00000E+00  -120.83
  128.00     0.00      -0.75 -999.99   -0.75    0.00000     0.00  LINEAR    4.56531E-01   -65.89    0.00000E+00  -120.83
  129.00     0.00      -0.92 -999.99   -0.92    0.00000     0.00  LINEAR    4.48155E-01   -65.88    0.00000E+00  -120.83
  130.00     0.00      -1.08 -999.99   -1.08    0.00000     0.00  LINEAR    4.39694E-01   -65.86    0.00000E+00  -120.83
  131.00     0.00      -1.25 -999.99   -1.25    0.00000     0.00  LINEAR    4.31152E-01   -65.85    0.00000E+00  -120.83
  132.00     0.00      -1.43 -999.99   -1.43    0.00000     0.00  LINEAR    4.22538E-01   -65.83    0.00000E+00  -120.83
  133.00     0.00      -1.61 -999.99   -1.61    0.00000     0.00  LINEAR    4.13858E-01   -65.82    0.00000E+00  -120.83
  134.00     0.00      -1.79 -999.99   -1.79    0.00000     0.00  LINEAR    4.05117E-01   -65.80    0.00000E+00  -120.83
  135.00     0.00      -1.98 -999.99   -1.98    0.00000     0.00  LINEAR    3.96323E-01   -65.79    0.00000E+00  -120.83
  136.00     0.00      -2.18 -999.99   -2.18    0.00000     0.00  LINEAR    3.87480E-01   -65.77    0.00000E+00  -120.83
  137.00     0.00      -2.38 -999.99   -2.38    0.00000     0.00  LINEAR    3.78595E-01   -65.76    0.00000E+00  -120.83
  138.00     0.00      -2.59 -999.99   -2.59    0.00000     0.00  LINEAR    3.69674E-01   -65.74    0.00000E+00  -120.83
  139.00     0.00      -2.80 -999.99   -2.80    0.00000     0.00  LINEAR    3.60720E-01   -65.73    0.00000E+00  -120.83
  140.00     0.00      -3.02 -999.99   -3.02    0.00000     0.00  LINEAR    3.51741E-01   -65.71    0.00000E+00  -120.83
  141.00     0.00      -3.24 -999.99   -3.24    0.00000     0.00  LINEAR    3.42739E-01   -65.70    0.00000E+00  -120.83
  142.00     0.00      -3.48 -999.99   -3.48    0.00000     0.00  LINEAR    3.33721E-01   -65.68    0.00000E+00  -120.83
  143.00     0.00      -3.71 -999.99   -3.71    0.00000     0.00  LINEAR    3.24689E-01   -65.67    0.00000E+00  -120.83
  144.00     0.00      -3.96 -999.99   -3.96    0.00000     0.00  LINEAR    3.15649E-01   -65.65    0.00000E+00  -120.83
  145.00     0.00      -4.21 -999.99   -4.21    0.00000     0.00  LINEAR    3.06605E-01   -65.63    0.00000E+00  -120.83
  146.00     0.00      -4.47 -999.99   -4.47    0.00000     0.00  LINEAR    2.97559E-01   -65.62    0.00000E+00  -120.83
  147.00     0.00      -4.74 -999.99   -4.74    0.00000     0.00  LINEAR    2.88515E-01   -65.60    0.00000E+00  -120.83
  148.00     0.00      -5.02 -999.99   -5.02    0.00000     0.00  LINEAR    2.79476E-01   -65.59    0.00000E+00  -120.83
  149.00     0.00      -5.30 -999.99   -5.30    0.00000     0.00  LINEAR    2.70446E-01   -65.58    0.00000E+00  -120.83
  150.00     0.00      -5.60 -999.99   -5.60    0.00000     0.00  LINEAR    2.61426E-01   -65.56    0.00000E+00  -120.83
  151.00     0.00      -5.90 -999.99   -5.90    0.00000     0.00  LINEAR    2.52420E-01   -65.55    0.00000E+00  -120.83
  152.00     0.00      -6.22 -999.99   -6.22    0.00000     0.00  LINEAR    2.43428E-01   -65.53    0.00000E+00  -120.83
  153.00     0.00      -6.54 -999.99   -6.54    0.00000     0.00  LINEAR    2.34454E-01   -65.52    0.00000E+00  -120.83
  154.00     0.00      -6.88 -999.99   -6.88    0.00000     0.00  LINEAR    2.25499E-01   -65.51    0.00000E+00  -120.83
  155.00     0.00      -7.23 -999.99   -7.23    0.00000     0.00  LINEAR    2.16563E-01   -65.49    0.00000E+00  -120.83
  156.00     0.00      -7.60 -999.99   -7.60    0.00000     0.00  LINEAR    2.07650E-01   -65.48    0.00000E+00  -120.83
  157.00     0.00      -7.98 -999.99   -7.98    0.00000     0.00  LINEAR    1.98758E-01   -65.47    0.00000E+00  -120.83
  158.00     0.00      -8.37 -999.99   -8.37    0.00000     0.00  LINEAR    1.89890E-01   -65.46    0.00000E+00  -120.83
  159.00     0.00      -8.79 -999.99   -8.79    0.00000     0.00  LINEAR    1.81046E-01   -65.44    0.00000E+00  -120.83
  160.00     0.00      -9.22 -999.99   -9.22    0.00000     0.00  LINEAR    1.72225E-01   -65.43    0.00000E+00  -120.83
  161.00     0.00      -9.68 -999.99   -9.68    0.00000     0.00  LINEAR    1.63429E-01   -65.42    0.00000E+00  -120.83
  162.00     0.00     -10.16 -999.99  -10.16    0.00000     0.00  LINEAR    1.54657E-01   -65.41    0.00000E+00  -120.83
  163.00     0.00     -10.66 -999.99  -10.66    0.00000     0.00  LINEAR    1.45910E-01   -65.40    0.00000E+00  -120.83
  164.00     0.00     -11.20 -999.99  -11.20    0.00000     0.00  LINEAR    1.37186E-01   -65.39    0.00000E+00  -120.83
  165.00     0.00     -11.77 -999.99  -11.77    0.00000     0.00  LINEAR    1.28485E-01   -65.38    0.00000E+00  -120.83
  166.00     0.00     -12.37 -999.99  -12.37    0.00000     0.00  LINEAR    1.19807E-01   -65.37    0.00000E+00  -120.83
  167.00     0.00     -13.03 -999.99  -13.03    0.00000     0.00  LINEAR    1.11150E-01   -65.37    0.00000E+00  -120.83
  168.00     0.00     -13.73 -999.99  -13.73    0.00000     0.00  LINEAR    1.02514E-01   -65.36    0.00000E+00  -120.83
  169.00     0.00     -14.49 -999.99  -14.49    0.00000     0.00  LINEAR    9.38976E-02   -65.35    0.00000E+00  -120.83
  170.00     0.00     -15.33 -999.99  -15.33    0.00000     0.00  LINEAR    8.52997E-02   -65.35    0.00000E+00  -120.83
  171.00     0.00     -16.25 -999.99  -16.25    0.00000     0.00  LINEAR    7.67188E-02   -65.34    0.00000E+00  -120.83
  172.00     0.00     -17.27 -999.99  -17.27    0.00000     0.00  LINEAR    6.81536E-02   -65.33    0.00000E+00  -120.83
  173.00     0.00     -18.44 -999.99  -18.44    0.00000     0.00  LINEAR    5.96025E-02   -65.33    0.00000E+00  -120.83
  174.00     0.00     -19.78 -999.99  -19.78    0.00000     0.00  LINEAR    5.10641E-02   -65.33    0.00000E+00  -120.83
  175.00     0.00     -21.37 -999.99  -21.37    0.00000     0.00  LINEAR    4.25365E-02   -65.32    0.00000E+00  -120.83
  176.00     0.00     -23.31 -999.99  -23.31    0.00000     0.00  LINEAR    3.40180E-02   -65.32    0.00000E+00  -120.83
  177.00     0.00     -25.81 -999.99  -25.81    0.00000     0.00  LINEAR    2.55070E-02   -65.32    0.00000E+00  -120.83
  178.00     0.00     -29.33 -999.99  -29.33    0.00000     0.00  LINEAR    1.70015E-02   -65.32    0.00000E+00  -120.83
  179.00     0.00     -35.36 -999.99  -35.36    0.00000     0.00  LINEAR    8.49983E-03   -65.32    0.00000E+00  -120.83






 ***** DATA CARD NO.  4   XQ   0     0     0     0  0.00000E+00  0.00000E+00  0.00000E+00  0.00000E+00  0.00000E+00  0.00000E+00
 ***** DATA CARD NO.  5   EN   0     0     0     0  0.00000E+00  0.00000E+00  0.00000E+00  0.00000E+00  0.00000E+00  0.00000E+00

 RUN TIME =     0.033
