1



                                 *********************************************

                                    NUMERICAL ELECTROMAGNETICS CODE (NEC-2D)

                                 *********************************************




                                     - - - - COMMENTS - - - -


                          TEST0300.NEC: NEC2 timing test - 300 segments.                               




                                 - - - STRUCTURE SPECIFICATION - - -

                                     COORDINATES MUST BE INPUT IN
                                     METERS OR BE SCALED TO METERS
                                     BEFORE STRUCTURE INPUT IS ENDED


  WIRE                                                                               NO. OF    FIRST  LAST     TAG
  NO.        X1         Y1         Z1          X2         Y2         Z2      RADIUS   SEG.     SEG.   SEG.     NO.
     1    0.00000    0.00000    0.00000     0.00000    0.00000    1.00000    0.00100     10        1    10       0
      THE STRUCTURE HAS BEEN MOVED, MOVE DATA CARD IS -
        0    9   0.00000   0.00000   0.00000   0.20000   0.00000   0.00000   0.00000
      THE STRUCTURE HAS BEEN MOVED, MOVE DATA CARD IS -
        0    2   0.00000   0.00000   0.00000   0.00000   0.20000   0.00000   0.00000

   TOTAL SEGMENTS USED=  300     NO. SEG. IN A SYMMETRIC CELL=  300     SYMMETRY FLAG=  0


         - MULTIPLE WIRE JUNCTIONS -
 JUNCTION    SEGMENTS  (- FOR END 1, + FOR END 2)
  NONE




                                 - - - - SEGMENTATION DATA - - - -

                                        COORDINATES IN METERS

                         I+ AND I- INDICATE THE SEGMENTS BEFORE AND AFTER I


  SEG.   COORDINATES OF SEG. CENTER     SEG.     ORIENTATION ANGLES    WIRE    CONNECTION DATA   TAG
  NO.       X         Y         Z       LENGTH     ALPHA     BETA      RADIUS    I-   I    I+    NO.
     1   0.00000   0.00000   0.05000   0.10000   90.00000   0.00000   0.00100     0    1    2      0
     2   0.00000   0.00000   0.15000   0.10000   90.00000   0.00000   0.00100     1    2    3      0
     3   0.00000   0.00000   0.25000   0.10000   90.00000   0.00000   0.00100     2    3    4      0
     4   0.00000   0.00000   0.35000   0.10000   90.00000   0.00000   0.00100     3    4    5      0
     5   0.00000   0.00000   0.45000   0.10000   90.00000   0.00000   0.00100     4    5    6      0
     6   0.00000   0.00000   0.55000   0.10000   90.00000   0.00000   0.00100     5    6    7      0
     7   0.00000   0.00000   0.65000   0.10000   90.00000   0.00000   0.00100     6    7    8      0
     8   0.00000   0.00000   0.75000   0.10000   90.00000   0.00000   0.00100     7    8    9      0
     9   0.00000   0.00000   0.85000   0.10000   90.00000   0.00000   0.00100     8    9   10      0
    10   0.00000   0.00000   0.95000   0.10000   90.00000   0.00000   0.00100     9   10    0      0
    11   0.20000   0.00000   0.05000   0.10000   90.00000   0.00000   0.00100     0   11   12      0
    12   0.20000   0.00000   0.15000   0.10000   90.00000   0.00000   0.00100    11   12   13      0
    13   0.20000   0.00000   0.25000   0.10000   90.00000   0.00000   0.00100    12   13   14      0
    14   0.20000   0.00000   0.35000   0.10000   90.00000   0.00000   0.00100    13   14   15      0
    15   0.20000   0.00000   0.45000   0.10000   90.00000   0.00000   0.00100    14   15   16      0
    16   0.20000   0.00000   0.55000   0.10000   90.00000   0.00000   0.00100    15   16   17      0
    17   0.20000   0.00000   0.65000   0.10000   90.00000   0.00000   0.00100    16   17   18      0
    18   0.20000   0.00000   0.75000   0.10000   90.00000   0.00000   0.00100    17   18   19      0
    19   0.20000   0.00000   0.85000   0.10000   90.00000   0.00000   0.00100    18   19   20      0
    20   0.20000   0.00000   0.95000   0.10000   90.00000   0.00000   0.00100    19   20    0      0
    21   0.40000   0.00000   0.05000   0.10000   90.00000   0.00000   0.00100     0   21   22      0
    22   0.40000   0.00000   0.15000   0.10000   90.00000   0.00000   0.00100    21   22   23      0
    23   0.40000   0.00000   0.25000   0.10000   90.00000   0.00000   0.00100    22   23   24      0
    24   0.40000   0.00000   0.35000   0.10000   90.00000   0.00000   0.00100    23   24   25      0
    25   0.40000   0.00000   0.45000   0.10000   90.00000   0.00000   0.00100    24   25   26      0
    26   0.40000   0.00000   0.55000   0.10000   90.00000   0.00000   0.00100    25   26   27      0
    27   0.40000   0.00000   0.65000   0.10000   90.00000   0.00000   0.00100    26   27   28      0
    28   0.40000   0.00000   0.75000   0.10000   90.00000   0.00000   0.00100    27   28   29      0
    29   0.40000   0.00000   0.85000   0.10000   90.00000   0.00000   0.00100    28   29   30      0
    30   0.40000   0.00000   0.95000   0.10000   90.00000   0.00000   0.00100    29   30    0      0
    31   0.60000   0.00000   0.05000   0.10000   90.00000   0.00000   0.00100     0   31   32      0
    32   0.60000   0.00000   0.15000   0.10000   90.00000   0.00000   0.00100    31   32   33      0
    33   0.60000   0.00000   0.25000   0.10000   90.00000   0.00000   0.00100    32   33   34      0
    34   0.60000   0.00000   0.35000   0.10000   90.00000   0.00000   0.00100    33   34   35      0
    35   0.60000   0.00000   0.45000   0.10000   90.00000   0.00000   0.00100    34   35   36      0
    36   0.60000   0.00000   0.55000   0.10000   90.00000   0.00000   0.00100    35   36   37      0
    37   0.60000   0.00000   0.65000   0.10000   90.00000   0.00000   0.00100    36   37   38      0
    38   0.60000   0.00000   0.75000   0.10000   90.00000   0.00000   0.00100    37   38   39      0
    39   0.60000   0.00000   0.85000   0.10000   90.00000   0.00000   0.00100    38   39   40      0
    40   0.60000   0.00000   0.95000   0.10000   90.00000   0.00000   0.00100    39   40    0      0
    41   0.80000   0.00000   0.05000   0.10000   90.00000   0.00000   0.00100     0   41   42      0
    42   0.80000   0.00000   0.15000   0.10000   90.00000   0.00000   0.00100    41   42   43      0
    43   0.80000   0.00000   0.25000   0.10000   90.00000   0.00000   0.00100    42   43   44      0
    44   0.80000   0.00000   0.35000   0.10000   90.00000   0.00000   0.00100    43   44   45      0
    45   0.80000   0.00000   0.45000   0.10000   90.00000   0.00000   0.00100    44   45   46      0
    46   0.80000   0.00000   0.55000   0.10000   90.00000   0.00000   0.00100    45   46   47      0
    47   0.80000   0.00000   0.65000   0.10000   90.00000   0.00000   0.00100    46   47   48      0
    48   0.80000   0.00000   0.75000   0.10000   90.00000   0.00000   0.00100    47   48   49      0
    49   0.80000   0.00000   0.85000   0.10000   90.00000   0.00000   0.00100    48   49   50      0
    50   0.80000   0.00000   0.95000   0.10000   90.00000   0.00000   0.00100    49   50    0      0
    51   1.00000   0.00000   0.05000   0.10000   90.00000   0.00000   0.00100     0   51   52      0
    52   1.00000   0.00000   0.15000   0.10000   90.00000   0.00000   0.00100    51   52   53      0
    53   1.00000   0.00000   0.25000   0.10000   90.00000   0.00000   0.00100    52   53   54      0
    54   1.00000   0.00000   0.35000   0.10000   90.00000   0.00000   0.00100    53   54   55      0
    55   1.00000   0.00000   0.45000   0.10000   90.00000   0.00000   0.00100    54   55   56      0
    56   1.00000   0.00000   0.55000   0.10000   90.00000   0.00000   0.00100    55   56   57      0
    57   1.00000   0.00000   0.65000   0.10000   90.00000   0.00000   0.00100    56   57   58      0
    58   1.00000   0.00000   0.75000   0.10000   90.00000   0.00000   0.00100    57   58   59      0
    59   1.00000   0.00000   0.85000   0.10000   90.00000   0.00000   0.00100    58   59   60      0
    60   1.00000   0.00000   0.95000   0.10000   90.00000   0.00000   0.00100    59   60    0      0
    61   1.20000   0.00000   0.05000   0.10000   90.00000   0.00000   0.00100     0   61   62      0
    62   1.20000   0.00000   0.15000   0.10000   90.00000   0.00000   0.00100    61   62   63      0
    63   1.20000   0.00000   0.25000   0.10000   90.00000   0.00000   0.00100    62   63   64      0
    64   1.20000   0.00000   0.35000   0.10000   90.00000   0.00000   0.00100    63   64   65      0
    65   1.20000   0.00000   0.45000   0.10000   90.00000   0.00000   0.00100    64   65   66      0
    66   1.20000   0.00000   0.55000   0.10000   90.00000   0.00000   0.00100    65   66   67      0
    67   1.20000   0.00000   0.65000   0.10000   90.00000   0.00000   0.00100    66   67   68      0
    68   1.20000   0.00000   0.75000   0.10000   90.00000   0.00000   0.00100    67   68   69      0
    69   1.20000   0.00000   0.85000   0.10000   90.00000   0.00000   0.00100    68   69   70      0
    70   1.20000   0.00000   0.95000   0.10000   90.00000   0.00000   0.00100    69   70    0      0
    71   1.40000   0.00000   0.05000   0.10000   90.00000   0.00000   0.00100     0   71   72      0
    72   1.40000   0.00000   0.15000   0.10000   90.00000   0.00000   0.00100    71   72   73      0
    73   1.40000   0.00000   0.25000   0.10000   90.00000   0.00000   0.00100    72   73   74      0
    74   1.40000   0.00000   0.35000   0.10000   90.00000   0.00000   0.00100    73   74   75      0
    75   1.40000   0.00000   0.45000   0.10000   90.00000   0.00000   0.00100    74   75   76      0
    76   1.40000   0.00000   0.55000   0.10000   90.00000   0.00000   0.00100    75   76   77      0
    77   1.40000   0.00000   0.65000   0.10000   90.00000   0.00000   0.00100    76   77   78      0
    78   1.40000   0.00000   0.75000   0.10000   90.00000   0.00000   0.00100    77   78   79      0
    79   1.40000   0.00000   0.85000   0.10000   90.00000   0.00000   0.00100    78   79   80      0
    80   1.40000   0.00000   0.95000   0.10000   90.00000   0.00000   0.00100    79   80    0      0
    81   1.60000   0.00000   0.05000   0.10000   90.00000   0.00000   0.00100     0   81   82      0
    82   1.60000   0.00000   0.15000   0.10000   90.00000   0.00000   0.00100    81   82   83      0
    83   1.60000   0.00000   0.25000   0.10000   90.00000   0.00000   0.00100    82   83   84      0
    84   1.60000   0.00000   0.35000   0.10000   90.00000   0.00000   0.00100    83   84   85      0
    85   1.60000   0.00000   0.45000   0.10000   90.00000   0.00000   0.00100    84   85   86      0
    86   1.60000   0.00000   0.55000   0.10000   90.00000   0.00000   0.00100    85   86   87      0
    87   1.60000   0.00000   0.65000   0.10000   90.00000   0.00000   0.00100    86   87   88      0
    88   1.60000   0.00000   0.75000   0.10000   90.00000   0.00000   0.00100    87   88   89      0
    89   1.60000   0.00000   0.85000   0.10000   90.00000   0.00000   0.00100    88   89   90      0
    90   1.60000   0.00000   0.95000   0.10000   90.00000   0.00000   0.00100    89   90    0      0
    91   1.80000   0.00000   0.05000   0.10000   90.00000   0.00000   0.00100     0   91   92      0
    92   1.80000   0.00000   0.15000   0.10000   90.00000   0.00000   0.00100    91   92   93      0
    93   1.80000   0.00000   0.25000   0.10000   90.00000   0.00000   0.00100    92   93   94      0
    94   1.80000   0.00000   0.35000   0.10000   90.00000   0.00000   0.00100    93   94   95      0
    95   1.80000   0.00000   0.45000   0.10000   90.00000   0.00000   0.00100    94   95   96      0
    96   1.80000   0.00000   0.55000   0.10000   90.00000   0.00000   0.00100    95   96   97      0
    97   1.80000   0.00000   0.65000   0.10000   90.00000   0.00000   0.00100    96   97   98      0
    98   1.80000   0.00000   0.75000   0.10000   90.00000   0.00000   0.00100    97   98   99      0
    99   1.80000   0.00000   0.85000   0.10000   90.00000   0.00000   0.00100    98   99  100      0
   100   1.80000   0.00000   0.95000   0.10000   90.00000   0.00000   0.00100    99  100    0      0
   101   0.00000   0.20000   0.05000   0.10000   90.00000   0.00000   0.00100     0  101  102      0
   102   0.00000   0.20000   0.15000   0.10000   90.00000   0.00000   0.00100   101  102  103      0
   103   0.00000   0.20000   0.25000   0.10000   90.00000   0.00000   0.00100   102  103  104      0
   104   0.00000   0.20000   0.35000   0.10000   90.00000   0.00000   0.00100   103  104  105      0
   105   0.00000   0.20000   0.45000   0.10000   90.00000   0.00000   0.00100   104  105  106      0
   106   0.00000   0.20000   0.55000   0.10000   90.00000   0.00000   0.00100   105  106  107      0
   107   0.00000   0.20000   0.65000   0.10000   90.00000   0.00000   0.00100   106  107  108      0
   108   0.00000   0.20000   0.75000   0.10000   90.00000   0.00000   0.00100   107  108  109      0
   109   0.00000   0.20000   0.85000   0.10000   90.00000   0.00000   0.00100   108  109  110      0
   110   0.00000   0.20000   0.95000   0.10000   90.00000   0.00000   0.00100   109  110    0      0
   111   0.20000   0.20000   0.05000   0.10000   90.00000   0.00000   0.00100     0  111  112      0
   112   0.20000   0.20000   0.15000   0.10000   90.00000   0.00000   0.00100   111  112  113      0
   113   0.20000   0.20000   0.25000   0.10000   90.00000   0.00000   0.00100   112  113  114      0
   114   0.20000   0.20000   0.35000   0.10000   90.00000   0.00000   0.00100   113  114  115      0
   115   0.20000   0.20000   0.45000   0.10000   90.00000   0.00000   0.00100   114  115  116      0
   116   0.20000   0.20000   0.55000   0.10000   90.00000   0.00000   0.00100   115  116  117      0
   117   0.20000   0.20000   0.65000   0.10000   90.00000   0.00000   0.00100   116  117  118      0
   118   0.20000   0.20000   0.75000   0.10000   90.00000   0.00000   0.00100   117  118  119      0
   119   0.20000   0.20000   0.85000   0.10000   90.00000   0.00000   0.00100   118  119  120      0
   120   0.20000   0.20000   0.95000   0.10000   90.00000   0.00000   0.00100   119  120    0      0
   121   0.40000   0.20000   0.05000   0.10000   90.00000   0.00000   0.00100     0  121  122      0
   122   0.40000   0.20000   0.15000   0.10000   90.00000   0.00000   0.00100   121  122  123      0
   123   0.40000   0.20000   0.25000   0.10000   90.00000   0.00000   0.00100   122  123  124      0
   124   0.40000   0.20000   0.35000   0.10000   90.00000   0.00000   0.00100   123  124  125      0
   125   0.40000   0.20000   0.45000   0.10000   90.00000   0.00000   0.00100   124  125  126      0
   126   0.40000   0.20000   0.55000   0.10000   90.00000   0.00000   0.00100   125  126  127      0
   127   0.40000   0.20000   0.65000   0.10000   90.00000   0.00000   0.00100   126  127  128      0
   128   0.40000   0.20000   0.75000   0.10000   90.00000   0.00000   0.00100   127  128  129      0
   129   0.40000   0.20000   0.85000   0.10000   90.00000   0.00000   0.00100   128  129  130      0
   130   0.40000   0.20000   0.95000   0.10000   90.00000   0.00000   0.00100   129  130    0      0
   131   0.60000   0.20000   0.05000   0.10000   90.00000   0.00000   0.00100     0  131  132      0
   132   0.60000   0.20000   0.15000   0.10000   90.00000   0.00000   0.00100   131  132  133      0
   133   0.60000   0.20000   0.25000   0.10000   90.00000   0.00000   0.00100   132  133  134      0
   134   0.60000   0.20000   0.35000   0.10000   90.00000   0.00000   0.00100   133  134  135      0
   135   0.60000   0.20000   0.45000   0.10000   90.00000   0.00000   0.00100   134  135  136      0
   136   0.60000   0.20000   0.55000   0.10000   90.00000   0.00000   0.00100   135  136  137      0
   137   0.60000   0.20000   0.65000   0.10000   90.00000   0.00000   0.00100   136  137  138      0
   138   0.60000   0.20000   0.75000   0.10000   90.00000   0.00000   0.00100   137  138  139      0
   139   0.60000   0.20000   0.85000   0.10000   90.00000   0.00000   0.00100   138  139  140      0
   140   0.60000   0.20000   0.95000   0.10000   90.00000   0.00000   0.00100   139  140    0      0
   141   0.80000   0.20000   0.05000   0.10000   90.00000   0.00000   0.00100     0  141  142      0
   142   0.80000   0.20000   0.15000   0.10000   90.00000   0.00000   0.00100   141  142  143      0
   143   0.80000   0.20000   0.25000   0.10000   90.00000   0.00000   0.00100   142  143  144      0
   144   0.80000   0.20000   0.35000   0.10000   90.00000   0.00000   0.00100   143  144  145      0
   145   0.80000   0.20000   0.45000   0.10000   90.00000   0.00000   0.00100   144  145  146      0
   146   0.80000   0.20000   0.55000   0.10000   90.00000   0.00000   0.00100   145  146  147      0
   147   0.80000   0.20000   0.65000   0.10000   90.00000   0.00000   0.00100   146  147  148      0
   148   0.80000   0.20000   0.75000   0.10000   90.00000   0.00000   0.00100   147  148  149      0
   149   0.80000   0.20000   0.85000   0.10000   90.00000   0.00000   0.00100   148  149  150      0
   150   0.80000   0.20000   0.95000   0.10000   90.00000   0.00000   0.00100   149  150    0      0
   151   1.00000   0.20000   0.05000   0.10000   90.00000   0.00000   0.00100     0  151  152      0
   152   1.00000   0.20000   0.15000   0.10000   90.00000   0.00000   0.00100   151  152  153      0
   153   1.00000   0.20000   0.25000   0.10000   90.00000   0.00000   0.00100   152  153  154      0
   154   1.00000   0.20000   0.35000   0.10000   90.00000   0.00000   0.00100   153  154  155      0
   155   1.00000   0.20000   0.45000   0.10000   90.00000   0.00000   0.00100   154  155  156      0
   156   1.00000   0.20000   0.55000   0.10000   90.00000   0.00000   0.00100   155  156  157      0
   157   1.00000   0.20000   0.65000   0.10000   90.00000   0.00000   0.00100   156  157  158      0
   158   1.00000   0.20000   0.75000   0.10000   90.00000   0.00000   0.00100   157  158  159      0
   159   1.00000   0.20000   0.85000   0.10000   90.00000   0.00000   0.00100   158  159  160      0
   160   1.00000   0.20000   0.95000   0.10000   90.00000   0.00000   0.00100   159  160    0      0
   161   1.20000   0.20000   0.05000   0.10000   90.00000   0.00000   0.00100     0  161  162      0
   162   1.20000   0.20000   0.15000   0.10000   90.00000   0.00000   0.00100   161  162  163      0
   163   1.20000   0.20000   0.25000   0.10000   90.00000   0.00000   0.00100   162  163  164      0
   164   1.20000   0.20000   0.35000   0.10000   90.00000   0.00000   0.00100   163  164  165      0
   165   1.20000   0.20000   0.45000   0.10000   90.00000   0.00000   0.00100   164  165  166      0
   166   1.20000   0.20000   0.55000   0.10000   90.00000   0.00000   0.00100   165  166  167      0
   167   1.20000   0.20000   0.65000   0.10000   90.00000   0.00000   0.00100   166  167  168      0
   168   1.20000   0.20000   0.75000   0.10000   90.00000   0.00000   0.00100   167  168  169      0
   169   1.20000   0.20000   0.85000   0.10000   90.00000   0.00000   0.00100   168  169  170      0
   170   1.20000   0.20000   0.95000   0.10000   90.00000   0.00000   0.00100   169  170    0      0
   171   1.40000   0.20000   0.05000   0.10000   90.00000   0.00000   0.00100     0  171  172      0
   172   1.40000   0.20000   0.15000   0.10000   90.00000   0.00000   0.00100   171  172  173      0
   173   1.40000   0.20000   0.25000   0.10000   90.00000   0.00000   0.00100   172  173  174      0
   174   1.40000   0.20000   0.35000   0.10000   90.00000   0.00000   0.00100   173  174  175      0
   175   1.40000   0.20000   0.45000   0.10000   90.00000   0.00000   0.00100   174  175  176      0
   176   1.40000   0.20000   0.55000   0.10000   90.00000   0.00000   0.00100   175  176  177      0
   177   1.40000   0.20000   0.65000   0.10000   90.00000   0.00000   0.00100   176  177  178      0
   178   1.40000   0.20000   0.75000   0.10000   90.00000   0.00000   0.00100   177  178  179      0
   179   1.40000   0.20000   0.85000   0.10000   90.00000   0.00000   0.00100   178  179  180      0
   180   1.40000   0.20000   0.95000   0.10000   90.00000   0.00000   0.00100   179  180    0      0
   181   1.60000   0.20000   0.05000   0.10000   90.00000   0.00000   0.00100     0  181  182      0
   182   1.60000   0.20000   0.15000   0.10000   90.00000   0.00000   0.00100   181  182  183      0
   183   1.60000   0.20000   0.25000   0.10000   90.00000   0.00000   0.00100   182  183  184      0
   184   1.60000   0.20000   0.35000   0.10000   90.00000   0.00000   0.00100   183  184  185      0
   185   1.60000   0.20000   0.45000   0.10000   90.00000   0.00000   0.00100   184  185  186      0
   186   1.60000   0.20000   0.55000   0.10000   90.00000   0.00000   0.00100   185  186  187      0
   187   1.60000   0.20000   0.65000   0.10000   90.00000   0.00000   0.00100   186  187  188      0
   188   1.60000   0.20000   0.75000   0.10000   90.00000   0.00000   0.00100   187  188  189      0
   189   1.60000   0.20000   0.85000   0.10000   90.00000   0.00000   0.00100   188  189  190      0
   190   1.60000   0.20000   0.95000   0.10000   90.00000   0.00000   0.00100   189  190    0      0
   191   1.80000   0.20000   0.05000   0.10000   90.00000   0.00000   0.00100     0  191  192      0
   192   1.80000   0.20000   0.15000   0.10000   90.00000   0.00000   0.00100   191  192  193      0
   193   1.80000   0.20000   0.25000   0.10000   90.00000   0.00000   0.00100   192  193  194      0
   194   1.80000   0.20000   0.35000   0.10000   90.00000   0.00000   0.00100   193  194  195      0
   195   1.80000   0.20000   0.45000   0.10000   90.00000   0.00000   0.00100   194  195  196      0
   196   1.80000   0.20000   0.55000   0.10000   90.00000   0.00000   0.00100   195  196  197      0
   197   1.80000   0.20000   0.65000   0.10000   90.00000   0.00000   0.00100   196  197  198      0
   198   1.80000   0.20000   0.75000   0.10000   90.00000   0.00000   0.00100   197  198  199      0
   199   1.80000   0.20000   0.85000   0.10000   90.00000   0.00000   0.00100   198  199  200      0
   200   1.80000   0.20000   0.95000   0.10000   90.00000   0.00000   0.00100   199  200    0      0
   201   0.00000   0.40000   0.05000   0.10000   90.00000   0.00000   0.00100     0  201  202      0
   202   0.00000   0.40000   0.15000   0.10000   90.00000   0.00000   0.00100   201  202  203      0
   203   0.00000   0.40000   0.25000   0.10000   90.00000   0.00000   0.00100   202  203  204      0
   204   0.00000   0.40000   0.35000   0.10000   90.00000   0.00000   0.00100   203  204  205      0
   205   0.00000   0.40000   0.45000   0.10000   90.00000   0.00000   0.00100   204  205  206      0
   206   0.00000   0.40000   0.55000   0.10000   90.00000   0.00000   0.00100   205  206  207      0
   207   0.00000   0.40000   0.65000   0.10000   90.00000   0.00000   0.00100   206  207  208      0
   208   0.00000   0.40000   0.75000   0.10000   90.00000   0.00000   0.00100   207  208  209      0
   209   0.00000   0.40000   0.85000   0.10000   90.00000   0.00000   0.00100   208  209  210      0
   210   0.00000   0.40000   0.95000   0.10000   90.00000   0.00000   0.00100   209  210    0      0
   211   0.20000   0.40000   0.05000   0.10000   90.00000   0.00000   0.00100     0  211  212      0
   212   0.20000   0.40000   0.15000   0.10000   90.00000   0.00000   0.00100   211  212  213      0
   213   0.20000   0.40000   0.25000   0.10000   90.00000   0.00000   0.00100   212  213  214      0
   214   0.20000   0.40000   0.35000   0.10000   90.00000   0.00000   0.00100   213  214  215      0
   215   0.20000   0.40000   0.45000   0.10000   90.00000   0.00000   0.00100   214  215  216      0
   216   0.20000   0.40000   0.55000   0.10000   90.00000   0.00000   0.00100   215  216  217      0
   217   0.20000   0.40000   0.65000   0.10000   90.00000   0.00000   0.00100   216  217  218      0
   218   0.20000   0.40000   0.75000   0.10000   90.00000   0.00000   0.00100   217  218  219      0
   219   0.20000   0.40000   0.85000   0.10000   90.00000   0.00000   0.00100   218  219  220      0
   220   0.20000   0.40000   0.95000   0.10000   90.00000   0.00000   0.00100   219  220    0      0
   221   0.40000   0.40000   0.05000   0.10000   90.00000   0.00000   0.00100     0  221  222      0
   222   0.40000   0.40000   0.15000   0.10000   90.00000   0.00000   0.00100   221  222  223      0
   223   0.40000   0.40000   0.25000   0.10000   90.00000   0.00000   0.00100   222  223  224      0
   224   0.40000   0.40000   0.35000   0.10000   90.00000   0.00000   0.00100   223  224  225      0
   225   0.40000   0.40000   0.45000   0.10000   90.00000   0.00000   0.00100   224  225  226      0
   226   0.40000   0.40000   0.55000   0.10000   90.00000   0.00000   0.00100   225  226  227      0
   227   0.40000   0.40000   0.65000   0.10000   90.00000   0.00000   0.00100   226  227  228      0
   228   0.40000   0.40000   0.75000   0.10000   90.00000   0.00000   0.00100   227  228  229      0
   229   0.40000   0.40000   0.85000   0.10000   90.00000   0.00000   0.00100   228  229  230      0
   230   0.40000   0.40000   0.95000   0.10000   90.00000   0.00000   0.00100   229  230    0      0
   231   0.60000   0.40000   0.05000   0.10000   90.00000   0.00000   0.00100     0  231  232      0
   232   0.60000   0.40000   0.15000   0.10000   90.00000   0.00000   0.00100   231  232  233      0
   233   0.60000   0.40000   0.25000   0.10000   90.00000   0.00000   0.00100   232  233  234      0
   234   0.60000   0.40000   0.35000   0.10000   90.00000   0.00000   0.00100   233  234  235      0
   235   0.60000   0.40000   0.45000   0.10000   90.00000   0.00000   0.00100   234  235  236      0
   236   0.60000   0.40000   0.55000   0.10000   90.00000   0.00000   0.00100   235  236  237      0
   237   0.60000   0.40000   0.65000   0.10000   90.00000   0.00000   0.00100   236  237  238      0
   238   0.60000   0.40000   0.75000   0.10000   90.00000   0.00000   0.00100   237  238  239      0
   239   0.60000   0.40000   0.85000   0.10000   90.00000   0.00000   0.00100   238  239  240      0
   240   0.60000   0.40000   0.95000   0.10000   90.00000   0.00000   0.00100   239  240    0      0
   241   0.80000   0.40000   0.05000   0.10000   90.00000   0.00000   0.00100     0  241  242      0
   242   0.80000   0.40000   0.15000   0.10000   90.00000   0.00000   0.00100   241  242  243      0
   243   0.80000   0.40000   0.25000   0.10000   90.00000   0.00000   0.00100   242  243  244      0
   244   0.80000   0.40000   0.35000   0.10000   90.00000   0.00000   0.00100   243  244  245      0
   245   0.80000   0.40000   0.45000   0.10000   90.00000   0.00000   0.00100   244  245  246      0
   246   0.80000   0.40000   0.55000   0.10000   90.00000   0.00000   0.00100   245  246  247      0
   247   0.80000   0.40000   0.65000   0.10000   90.00000   0.00000   0.00100   246  247  248      0
   248   0.80000   0.40000   0.75000   0.10000   90.00000   0.00000   0.00100   247  248  249      0
   249   0.80000   0.40000   0.85000   0.10000   90.00000   0.00000   0.00100   248  249  250      0
   250   0.80000   0.40000   0.95000   0.10000   90.00000   0.00000   0.00100   249  250    0      0
   251   1.00000   0.40000   0.05000   0.10000   90.00000   0.00000   0.00100     0  251  252      0
   252   1.00000   0.40000   0.15000   0.10000   90.00000   0.00000   0.00100   251  252  253      0
   253   1.00000   0.40000   0.25000   0.10000   90.00000   0.00000   0.00100   252  253  254      0
   254   1.00000   0.40000   0.35000   0.10000   90.00000   0.00000   0.00100   253  254  255      0
   255   1.00000   0.40000   0.45000   0.10000   90.00000   0.00000   0.00100   254  255  256      0
   256   1.00000   0.40000   0.55000   0.10000   90.00000   0.00000   0.00100   255  256  257      0
   257   1.00000   0.40000   0.65000   0.10000   90.00000   0.00000   0.00100   256  257  258      0
   258   1.00000   0.40000   0.75000   0.10000   90.00000   0.00000   0.00100   257  258  259      0
   259   1.00000   0.40000   0.85000   0.10000   90.00000   0.00000   0.00100   258  259  260      0
   260   1.00000   0.40000   0.95000   0.10000   90.00000   0.00000   0.00100   259  260    0      0
   261   1.20000   0.40000   0.05000   0.10000   90.00000   0.00000   0.00100     0  261  262      0
   262   1.20000   0.40000   0.15000   0.10000   90.00000   0.00000   0.00100   261  262  263      0
   263   1.20000   0.40000   0.25000   0.10000   90.00000   0.00000   0.00100   262  263  264      0
   264   1.20000   0.40000   0.35000   0.10000   90.00000   0.00000   0.00100   263  264  265      0
   265   1.20000   0.40000   0.45000   0.10000   90.00000   0.00000   0.00100   264  265  266      0
   266   1.20000   0.40000   0.55000   0.10000   90.00000   0.00000   0.00100   265  266  267      0
   267   1.20000   0.40000   0.65000   0.10000   90.00000   0.00000   0.00100   266  267  268      0
   268   1.20000   0.40000   0.75000   0.10000   90.00000   0.00000   0.00100   267  268  269      0
   269   1.20000   0.40000   0.85000   0.10000   90.00000   0.00000   0.00100   268  269  270      0
   270   1.20000   0.40000   0.95000   0.10000   90.00000   0.00000   0.00100   269  270    0      0
   271   1.40000   0.40000   0.05000   0.10000   90.00000   0.00000   0.00100     0  271  272      0
   272   1.40000   0.40000   0.15000   0.10000   90.00000   0.00000   0.00100   271  272  273      0
   273   1.40000   0.40000   0.25000   0.10000   90.00000   0.00000   0.00100   272  273  274      0
   274   1.40000   0.40000   0.35000   0.10000   90.00000   0.00000   0.00100   273  274  275      0
   275   1.40000   0.40000   0.45000   0.10000   90.00000   0.00000   0.00100   274  275  276      0
   276   1.40000   0.40000   0.55000   0.10000   90.00000   0.00000   0.00100   275  276  277      0
   277   1.40000   0.40000   0.65000   0.10000   90.00000   0.00000   0.00100   276  277  278      0
   278   1.40000   0.40000   0.75000   0.10000   90.00000   0.00000   0.00100   277  278  279      0
   279   1.40000   0.40000   0.85000   0.10000   90.00000   0.00000   0.00100   278  279  280      0
   280   1.40000   0.40000   0.95000   0.10000   90.00000   0.00000   0.00100   279  280    0      0
   281   1.60000   0.40000   0.05000   0.10000   90.00000   0.00000   0.00100     0  281  282      0
   282   1.60000   0.40000   0.15000   0.10000   90.00000   0.00000   0.00100   281  282  283      0
   283   1.60000   0.40000   0.25000   0.10000   90.00000   0.00000   0.00100   282  283  284      0
   284   1.60000   0.40000   0.35000   0.10000   90.00000   0.00000   0.00100   283  284  285      0
   285   1.60000   0.40000   0.45000   0.10000   90.00000   0.00000   0.00100   284  285  286      0
   286   1.60000   0.40000   0.55000   0.10000   90.00000   0.00000   0.00100   285  286  287      0
   287   1.60000   0.40000   0.65000   0.10000   90.00000   0.00000   0.00100   286  287  288      0
   288   1.60000   0.40000   0.75000   0.10000   90.00000   0.00000   0.00100   287  288  289      0
   289   1.60000   0.40000   0.85000   0.10000   90.00000   0.00000   0.00100   288  289  290      0
   290   1.60000   0.40000   0.95000   0.10000   90.00000   0.00000   0.00100   289  290    0      0
   291   1.80000   0.40000   0.05000   0.10000   90.00000   0.00000   0.00100     0  291  292      0
   292   1.80000   0.40000   0.15000   0.10000   90.00000   0.00000   0.00100   291  292  293      0
   293   1.80000   0.40000   0.25000   0.10000   90.00000   0.00000   0.00100   292  293  294      0
   294   1.80000   0.40000   0.35000   0.10000   90.00000   0.00000   0.00100   293  294  295      0
   295   1.80000   0.40000   0.45000   0.10000   90.00000   0.00000   0.00100   294  295  296      0
   296   1.80000   0.40000   0.55000   0.10000   90.00000   0.00000   0.00100   295  296  297      0
   297   1.80000   0.40000   0.65000   0.10000   90.00000   0.00000   0.00100   296  297  298      0
   298   1.80000   0.40000   0.75000   0.10000   90.00000   0.00000   0.00100   297  298  299      0
   299   1.80000   0.40000   0.85000   0.10000   90.00000   0.00000   0.00100   298  299  300      0
   300   1.80000   0.40000   0.95000   0.10000   90.00000   0.00000   0.00100   299  300    0      0






 ***** DATA CARD NO.  1   EX   0     0     5     0  1.00000E+00  0.00000E+00  0.00000E+00  0.00000E+00  0.00000E+00  0.00000E+00
 ***** DATA CARD NO.  2   XQ   0     0     0     0  0.00000E+00  0.00000E+00  0.00000E+00  0.00000E+00  0.00000E+00  0.00000E+00




                                 - - - - - - FREQUENCY - - - - - -

                                    FREQUENCY= 2.9979E+02 MHZ
                                    WAVELENGTH= 1.0000E+00 METERS




                    APPROXIMATE INTEGRATION EMPLOYED FOR SEGMENTS MORE THAN   1.000 WAVELENGTHS APART



                               - - - STRUCTURE IMPEDANCE LOADING - - -

                                   THIS STRUCTURE IS NOT LOADED



                                  - - - ANTENNA ENVIRONMENT - - -

                                            FREE SPACE



                                - - - MATRIX TIMING - - -

                        FILL=    1.910 SEC.,  FACTOR=    2.210 SEC.



                                          - - - ANTENNA INPUT PARAMETERS - - -

   TAG   SEG.    VOLTAGE (VOLTS)         CURRENT (AMPS)         IMPEDANCE (OHMS)        ADMITTANCE (MHOS)      POWER
   NO.   NO.    REAL        IMAG.       REAL        IMAG.       REAL        IMAG.       REAL        IMAG.     (WATTS)
     0     5 1.00000E+00 0.00000E+00 6.75906E-04-6.05311E-04 8.21021E+02 7.35270E+02 6.75906E-04-6.05311E-04 3.37953E-04



                             - - - CURRENTS AND LOCATION - - -

                                 DISTANCES IN WAVELENGTHS


  SEG.  TAG    COORD. OF SEG. CENTER     SEG.            - - - CURRENT (AMPS) - - -
  NO.   NO.     X        Y        Z      LENGTH     REAL        IMAG.       MAG.        PHASE
     1    0   0.0000   0.0000   0.0500  0.10000   3.6570E-04 -1.5663E-03  1.6084E-03  -76.858
     2    0   0.0000   0.0000   0.1500  0.10000   9.2091E-04 -3.6383E-03  3.7530E-03  -75.796
     3    0   0.0000   0.0000   0.2500  0.10000   1.1825E-03 -4.1159E-03  4.2824E-03  -73.970
     4    0   0.0000   0.0000   0.3500  0.10000   1.0864E-03 -2.8799E-03  3.0780E-03  -69.333
     5    0   0.0000   0.0000   0.4500  0.10000   6.7591E-04 -6.0531E-04  9.0733E-04  -41.846
     6    0   0.0000   0.0000   0.5500  0.10000   1.0322E-04  3.1951E-04  3.3577E-04   72.097
     7    0   0.0000   0.0000   0.6500  0.10000  -4.2450E-04  1.0280E-03  1.1122E-03  112.438
     8    0   0.0000   0.0000   0.7500  0.10000  -7.1923E-04  1.4081E-03  1.5811E-03  117.057
     9    0   0.0000   0.0000   0.8500  0.10000  -6.7800E-04  1.2424E-03  1.4153E-03  118.623
    10    0   0.0000   0.0000   0.9500  0.10000  -3.0324E-04  5.3591E-04  6.1576E-04  119.503
    11    0   0.2000   0.0000   0.0500  0.10000   9.5886E-05  5.6841E-04  5.7644E-04   80.425
    12    0   0.2000   0.0000   0.1500  0.10000   2.5296E-04  1.3888E-03  1.4116E-03   79.677
    13    0   0.2000   0.0000   0.2500  0.10000   3.5277E-04  1.6865E-03  1.7230E-03   78.186
    14    0   0.2000   0.0000   0.3500  0.10000   3.7560E-04  1.3887E-03  1.4386E-03   74.865
    15    0   0.2000   0.0000   0.4500  0.10000   3.1940E-04  6.2865E-04  7.0514E-04   63.066
    16    0   0.2000   0.0000   0.5500  0.10000   2.0520E-04 -2.9640E-04  3.6050E-04  -55.306
    17    0   0.2000   0.0000   0.6500  0.10000   7.1539E-05 -1.0525E-03  1.0549E-03  -86.111
    18    0   0.2000   0.0000   0.7500  0.10000  -3.7359E-05 -1.3799E-03  1.3804E-03  -91.551
    19    0   0.2000   0.0000   0.8500  0.10000  -8.5142E-05 -1.1722E-03  1.1753E-03  -94.154
    20    0   0.2000   0.0000   0.9500  0.10000  -5.1494E-05 -4.9007E-04  4.9277E-04  -95.998
    21    0   0.4000   0.0000   0.0500  0.10000   4.9810E-05 -4.1859E-05  6.5063E-05  -40.043
    22    0   0.4000   0.0000   0.1500  0.10000   1.2765E-04 -1.1954E-04  1.7489E-04  -43.121
    23    0   0.4000   0.0000   0.2500  0.10000   1.7341E-04 -1.6373E-04  2.3849E-04  -43.354
    24    0   0.4000   0.0000   0.3500  0.10000   1.8032E-04 -1.4982E-04  2.3444E-04  -39.722
    25    0   0.4000   0.0000   0.4500  0.10000   1.5036E-04 -7.7547E-05  1.6918E-04  -27.281
    26    0   0.4000   0.0000   0.5500  0.10000   9.5714E-05  2.7120E-05  9.9482E-05   15.820
    27    0   0.4000   0.0000   0.6500  0.10000   3.5039E-05  1.2227E-04  1.2719E-04   74.010
    28    0   0.4000   0.0000   0.7500  0.10000  -1.2339E-05  1.6813E-04  1.6859E-04   94.197
    29    0   0.4000   0.0000   0.8500  0.10000  -3.2375E-05  1.4505E-04  1.4861E-04  102.583
    30    0   0.4000   0.0000   0.9500  0.10000  -1.9404E-05  6.0334E-05  6.3378E-05  107.829
    31    0   0.6000   0.0000   0.0500  0.10000   7.0076E-06 -2.3502E-05  2.4525E-05  -73.397
    32    0   0.6000   0.0000   0.1500  0.10000   1.1922E-05 -6.4852E-05  6.5939E-05  -79.583
    33    0   0.6000   0.0000   0.2500  0.10000   1.1107E-05 -9.1301E-05  9.1975E-05  -83.064
    34    0   0.6000   0.0000   0.3500  0.10000   1.0245E-05 -9.3592E-05  9.4152E-05  -83.753
    35    0   0.6000   0.0000   0.4500  0.10000   1.2662E-05 -7.0297E-05  7.1428E-05  -79.789
    36    0   0.6000   0.0000   0.5500  0.10000   1.8489E-05 -2.9714E-05  3.4997E-05  -58.109
    37    0   0.6000   0.0000   0.6500  0.10000   2.4926E-05  1.3056E-05  2.8139E-05   27.645
    38    0   0.6000   0.0000   0.7500  0.10000   2.7754E-05  4.1940E-05  5.0291E-05   56.505
    39    0   0.6000   0.0000   0.8500  0.10000   2.3400E-05  4.6004E-05  5.1613E-05   63.040
    40    0   0.6000   0.0000   0.9500  0.10000   1.0283E-05  2.2315E-05  2.4570E-05   65.260
    41    0   0.8000   0.0000   0.0500  0.10000  -1.1028E-05 -7.8210E-06  1.3520E-05 -144.656
    42    0   0.8000   0.0000   0.1500  0.10000  -3.3348E-05 -1.7747E-05  3.7776E-05 -151.979
    43    0   0.8000   0.0000   0.2500  0.10000  -4.9236E-05 -2.1607E-05  5.3769E-05 -156.306
    44    0   0.8000   0.0000   0.3500  0.10000  -5.1288E-05 -2.0247E-05  5.5140E-05 -158.457
    45    0   0.8000   0.0000   0.4500  0.10000  -3.7407E-05 -1.5137E-05  4.0354E-05 -157.969
    46    0   0.8000   0.0000   0.5500  0.10000  -1.2120E-05 -8.4205E-06  1.4758E-05 -145.209
    47    0   0.8000   0.0000   0.6500  0.10000   1.5095E-05 -2.3708E-06  1.5280E-05   -8.926
    48    0   0.8000   0.0000   0.7500  0.10000   3.3571E-05  1.3772E-06  3.3600E-05    2.349
    49    0   0.8000   0.0000   0.8500  0.10000   3.5316E-05  2.2999E-06  3.5391E-05    3.726
    50    0   0.8000   0.0000   0.9500  0.10000   1.7110E-05  1.0445E-06  1.7142E-05    3.493
    51    0   1.0000   0.0000   0.0500  0.10000  -4.4959E-06  4.3401E-06  6.2490E-06  136.010
    52    0   1.0000   0.0000   0.1500  0.10000  -1.2274E-05  1.5776E-05  1.9989E-05  127.884
    53    0   1.0000   0.0000   0.2500  0.10000  -1.7495E-05  2.5928E-05  3.1279E-05  124.010
    54    0   1.0000   0.0000   0.3500  0.10000  -1.8617E-05  2.9521E-05  3.4901E-05  122.237
    55    0   1.0000   0.0000   0.4500  0.10000  -1.5234E-05  2.4246E-05  2.8635E-05  122.142
    56    0   1.0000   0.0000   0.5500  0.10000  -8.5421E-06  1.1644E-05  1.4442E-05  126.263
    57    0   1.0000   0.0000   0.6500  0.10000  -9.1863E-07 -3.5522E-06  3.6691E-06 -104.499
    58    0   1.0000   0.0000   0.7500  0.10000   4.8177E-06 -1.5193E-05  1.5938E-05  -72.406
    59    0   1.0000   0.0000   0.8500  0.10000   6.5264E-06 -1.8058E-05  1.9201E-05  -70.130
    60    0   1.0000   0.0000   0.9500  0.10000   3.4033E-06 -9.3334E-06  9.9345E-06  -69.966
    61    0   1.2000   0.0000   0.0500  0.10000   4.0744E-07  5.3234E-06  5.3390E-06   85.623
    62    0   1.2000   0.0000   0.1500  0.10000   4.4189E-06  1.5536E-05  1.6152E-05   74.123
    63    0   1.2000   0.0000   0.2500  0.10000   9.7542E-06  2.2803E-05  2.4802E-05   66.841
    64    0   1.2000   0.0000   0.3500  0.10000   1.3349E-05  2.4287E-05  2.7714E-05   61.206
    65    0   1.2000   0.0000   0.4500  0.10000   1.3310E-05  1.9154E-05  2.3324E-05   55.204
    66    0   1.2000   0.0000   0.5500  0.10000   9.4557E-06  9.1323E-06  1.3146E-05   44.003
    67    0   1.2000   0.0000   0.6500  0.10000   3.2822E-06 -2.0879E-06  3.8900E-06  -32.461
    68    0   1.2000   0.0000   0.7500  0.10000  -2.6227E-06 -1.0233E-05  1.0563E-05 -104.376
    69    0   1.2000   0.0000   0.8500  0.10000  -5.5569E-06 -1.2022E-05  1.3244E-05 -114.807
    70    0   1.2000   0.0000   0.9500  0.10000  -3.4778E-06 -6.0754E-06  7.0004E-06 -119.788
    71    0   1.4000   0.0000   0.0500  0.10000   4.3604E-06  2.3892E-07  4.3669E-06    3.136
    72    0   1.4000   0.0000   0.1500  0.10000   1.3590E-05 -1.1850E-06  1.3642E-05   -4.983
    73    0   1.4000   0.0000   0.2500  0.10000   2.0807E-05 -3.5730E-06  2.1112E-05   -9.744
    74    0   1.4000   0.0000   0.3500  0.10000   2.2966E-05 -5.3905E-06  2.3591E-05  -13.209
    75    0   1.4000   0.0000   0.4500  0.10000   1.8945E-05 -5.6660E-06  1.9775E-05  -16.650
    76    0   1.4000   0.0000   0.5500  0.10000   1.0083E-05 -4.2071E-06  1.0925E-05  -22.649
    77    0   1.4000   0.0000   0.6500  0.10000  -3.3322E-07 -1.6037E-06  1.6380E-06 -101.738
    78    0   1.4000   0.0000   0.7500  0.10000  -8.2980E-06  1.0204E-06  8.3605E-06  172.989
    79    0   1.4000   0.0000   0.8500  0.10000  -1.0568E-05  2.4230E-06  1.0842E-05  167.087
    80    0   1.4000   0.0000   0.9500  0.10000  -5.5475E-06  1.5778E-06  5.7675E-06  164.123
    81    0   1.6000   0.0000   0.0500  0.10000   1.3757E-06 -3.0500E-06  3.3459E-06  -65.723
    82    0   1.6000   0.0000   0.1500  0.10000   2.8888E-06 -1.0225E-05  1.0625E-05  -74.224
    83    0   1.6000   0.0000   0.2500  0.10000   3.1933E-06 -1.6331E-05  1.6641E-05  -78.937
    84    0   1.6000   0.0000   0.3500  0.10000   2.5994E-06 -1.8621E-05  1.8802E-05  -82.053
    85    0   1.6000   0.0000   0.4500  0.10000   1.4965E-06 -1.5923E-05  1.5993E-05  -84.631
    86    0   1.6000   0.0000   0.5500  0.10000   3.3799E-07 -9.1024E-06  9.1087E-06  -87.873
    87    0   1.6000   0.0000   0.6500  0.10000  -4.8421E-07 -7.0474E-07  8.5505E-07 -124.492
    88    0   1.6000   0.0000   0.7500  0.10000  -7.6509E-07  6.0081E-06  6.0566E-06   97.257
    89    0   1.6000   0.0000   0.8500  0.10000  -5.5354E-07  8.2536E-06  8.2722E-06   93.837
    90    0   1.6000   0.0000   0.9500  0.10000  -1.4168E-07  4.4840E-06  4.4862E-06   91.810
    91    0   1.8000   0.0000   0.0500  0.10000  -1.4077E-06 -6.0514E-07  1.5323E-06 -156.739
    92    0   1.8000   0.0000   0.1500  0.10000  -5.7205E-06 -1.8101E-06  6.0000E-06 -162.441
    93    0   1.8000   0.0000   0.2500  0.10000  -9.9809E-06 -2.8147E-06  1.0370E-05 -164.251
    94    0   1.8000   0.0000   0.3500  0.10000  -1.1997E-05 -3.3235E-06  1.2449E-05 -164.516
    95    0   1.8000   0.0000   0.4500  0.10000  -1.0658E-05 -3.1796E-06  1.1122E-05 -163.389
    96    0   1.8000   0.0000   0.5500  0.10000  -6.3174E-06 -2.4393E-06  6.7720E-06 -158.887
    97    0   1.8000   0.0000   0.6500  0.10000  -6.2086E-07 -1.3549E-06  1.4903E-06 -114.619
    98    0   1.8000   0.0000   0.7500  0.10000   4.1326E-06 -2.9506E-07  4.1431E-06   -4.084
    99    0   1.8000   0.0000   0.8500  0.10000   5.8518E-06  3.6487E-07  5.8632E-06    3.568
   100    0   1.8000   0.0000   0.9500  0.10000   3.2436E-06  3.3719E-07  3.2611E-06    5.935
   101    0   0.0000   0.2000   0.0500  0.10000   9.6358E-05  5.6869E-04  5.7680E-04   80.383
   102    0   0.0000   0.2000   0.1500  0.10000   2.5381E-04  1.3895E-03  1.4125E-03   79.648
   103    0   0.0000   0.2000   0.2500  0.10000   3.5297E-04  1.6874E-03  1.7239E-03   78.186
   104    0   0.0000   0.2000   0.3500  0.10000   3.7409E-04  1.3893E-03  1.4388E-03   74.930
   105    0   0.0000   0.2000   0.4500  0.10000   3.1564E-04  6.2863E-04  7.0342E-04   63.338
   106    0   0.0000   0.2000   0.5500  0.10000   1.9949E-04 -2.9722E-04  3.5796E-04  -56.131
   107    0   0.0000   0.2000   0.6500  0.10000   6.4983E-05 -1.0540E-03  1.0560E-03  -86.472
   108    0   0.0000   0.2000   0.7500  0.10000  -4.3269E-05 -1.3817E-03  1.3823E-03  -91.794
   109    0   0.0000   0.2000   0.8500  0.10000  -8.9082E-05 -1.1737E-03  1.1771E-03  -94.340
   110    0   0.0000   0.2000   0.9500  0.10000  -5.2823E-05 -4.9073E-04  4.9356E-04  -96.144
   111    0   0.2000   0.2000   0.0500  0.10000  -2.9831E-05  6.4385E-05  7.0960E-05  114.859
   112    0   0.2000   0.2000   0.1500  0.10000  -6.0075E-05  1.4615E-04  1.5801E-04  112.345
   113    0   0.2000   0.2000   0.2500  0.10000  -4.3029E-05  1.7594E-04  1.8113E-04  103.743
   114    0   0.2000   0.2000   0.3500  0.10000   2.1866E-05  1.6356E-04  1.6502E-04   82.385
   115    0   0.2000   0.2000   0.4500  0.10000   1.1513E-04  1.2648E-04  1.7103E-04   47.689
   116    0   0.2000   0.2000   0.5500  0.10000   2.0285E-04  8.2748E-05  2.1908E-04   22.191
   117    0   0.2000   0.2000   0.6500  0.10000   2.5045E-04  4.2199E-05  2.5398E-04    9.564
   118    0   0.2000   0.2000   0.7500  0.10000   2.3718E-04  8.5839E-06  2.3734E-04    2.073
   119    0   0.2000   0.2000   0.8500  0.10000   1.6547E-04 -1.3165E-05  1.6600E-04   -4.549
   120    0   0.2000   0.2000   0.9500  0.10000   5.8767E-05 -1.2979E-05  6.0183E-05  -12.454
   121    0   0.4000   0.2000   0.0500  0.10000  -4.5150E-06 -2.3301E-05  2.3735E-05 -100.966
   122    0   0.4000   0.2000   0.1500  0.10000  -7.1302E-06 -6.5440E-05  6.5827E-05  -96.218
   123    0   0.4000   0.2000   0.2500  0.10000   3.2248E-06 -8.6538E-05  8.6598E-05  -87.866
   124    0   0.4000   0.2000   0.3500  0.10000   2.7726E-05 -7.2344E-05  7.7475E-05  -69.031
   125    0   0.4000   0.2000   0.4500  0.10000   6.0631E-05 -2.3526E-05  6.5035E-05  -21.208
   126    0   0.4000   0.2000   0.5500  0.10000   9.0938E-05  4.3082E-05  1.0063E-04   25.349
   127    0   0.4000   0.2000   0.6500  0.10000   1.0678E-04  1.0113E-04  1.4707E-04   43.444
   128    0   0.4000   0.2000   0.7500  0.10000   1.0038E-04  1.2602E-04  1.6112E-04   51.461
   129    0   0.4000   0.2000   0.8500  0.10000   7.1458E-05  1.0575E-04  1.2763E-04   55.951
   130    0   0.4000   0.2000   0.9500  0.10000   2.6540E-05  4.4087E-05  5.1459E-05   58.952
   131    0   0.6000   0.2000   0.0500  0.10000   8.9801E-07  2.4410E-06  2.6009E-06   69.802
   132    0   0.6000   0.2000   0.1500  0.10000  -1.2194E-06  2.5416E-06  2.8190E-06  115.630
   133    0   0.6000   0.2000   0.2500  0.10000  -3.0064E-06 -1.9876E-06  3.6040E-06 -146.530
   134    0   0.6000   0.2000   0.3500  0.10000   2.4980E-07 -8.2968E-06  8.3006E-06  -88.275
   135    0   0.6000   0.2000   0.4500  0.10000   9.8491E-06 -1.3135E-05  1.6418E-05  -53.136
   136    0   0.6000   0.2000   0.5500  0.10000   2.3299E-05 -1.4202E-05  2.7287E-05  -31.364
   137    0   0.6000   0.2000   0.6500  0.10000   3.5378E-05 -1.1107E-05  3.7081E-05  -17.430
   138    0   0.6000   0.2000   0.7500  0.10000   4.0267E-05 -5.4434E-06  4.0633E-05   -7.699
   139    0   0.6000   0.2000   0.8500  0.10000   3.3856E-05 -1.1926E-07  3.3856E-05   -0.202
   140    0   0.6000   0.2000   0.9500  0.10000   1.4784E-05  1.5534E-06  1.4866E-05    5.998
   141    0   0.8000   0.2000   0.0500  0.10000   8.5362E-07  1.7270E-06  1.9265E-06   63.698
   142    0   0.8000   0.2000   0.1500  0.10000  -1.8249E-06  5.9589E-06  6.2321E-06  107.027
   143    0   0.8000   0.2000   0.2500  0.10000  -6.7092E-06  8.5641E-06  1.0879E-05  128.076
   144    0   0.8000   0.2000   0.3500  0.10000  -9.9421E-06  7.4131E-06  1.2402E-05  143.291
   145    0   0.8000   0.2000   0.4500  0.10000  -8.9891E-06  2.3380E-06  9.2881E-06  165.421
   146    0   0.8000   0.2000   0.5500  0.10000  -3.5492E-06 -4.9438E-06  6.0859E-06 -125.675
   147    0   0.8000   0.2000   0.6500  0.10000   4.3196E-06 -1.1636E-05  1.2412E-05  -69.633
   148    0   0.8000   0.2000   0.7500  0.10000   1.1127E-05 -1.4965E-05  1.8648E-05  -53.368
   149    0   0.8000   0.2000   0.8500  0.10000   1.3065E-05 -1.3187E-05  1.8563E-05  -45.267
   150    0   0.8000   0.2000   0.9500  0.10000   6.9969E-06 -5.8766E-06  9.1373E-06  -40.026
   151    0   1.0000   0.2000   0.0500  0.10000   2.8069E-06 -6.6793E-07  2.8853E-06  -13.385
   152    0   1.0000   0.2000   0.1500  0.10000   6.4125E-06  2.1473E-06  6.7624E-06   18.513
   153    0   1.0000   0.2000   0.2500  0.10000   6.9964E-06  7.2154E-06  1.0050E-05   45.883
   154    0   1.0000   0.2000   0.3500  0.10000   4.6083E-06  1.1130E-05  1.2046E-05   67.507
   155    0   1.0000   0.2000   0.4500  0.10000   3.0152E-07  1.1598E-05  1.1602E-05   88.511
   156    0   1.0000   0.2000   0.5500  0.10000  -4.2194E-06  8.0768E-06  9.1125E-06  117.583
   157    0   1.0000   0.2000   0.6500  0.10000  -7.2298E-06  1.8802E-06  7.4703E-06  165.422
   158    0   1.0000   0.2000   0.7500  0.10000  -7.7431E-06 -4.2695E-06  8.8422E-06 -151.128
   159    0   1.0000   0.2000   0.8500  0.10000  -5.7782E-06 -7.2537E-06  9.2738E-06 -128.540
   160    0   1.0000   0.2000   0.9500  0.10000  -2.1709E-06 -4.4120E-06  4.9172E-06 -116.199
   161    0   1.2000   0.2000   0.0500  0.10000  -7.7114E-07 -7.4340E-07  1.0711E-06 -136.049
   162    0   1.2000   0.2000   0.1500  0.10000   7.2973E-07 -1.8443E-07  7.5268E-07  -14.184
   163    0   1.2000   0.2000   0.2500  0.10000   4.1026E-06  2.0533E-06  4.5878E-06   26.588
   164    0   1.2000   0.2000   0.3500  0.10000   7.1570E-06  4.6147E-06  8.5158E-06   32.813
   165    0   1.2000   0.2000   0.4500  0.10000   8.3242E-06  6.2191E-06  1.0391E-05   36.764
   166    0   1.2000   0.2000   0.5500  0.10000   7.0135E-06  6.0920E-06  9.2899E-06   40.978
   167    0   1.2000   0.2000   0.6500  0.10000   3.7403E-06  4.2692E-06  5.6759E-06   48.778
   168    0   1.2000   0.2000   0.7500  0.10000  -6.8245E-08  1.5857E-06  1.5872E-06   92.464
   169    0   1.2000   0.2000   0.8500  0.10000  -2.5737E-06 -6.2369E-07  2.6482E-06 -166.378
   170    0   1.2000   0.2000   0.9500  0.10000  -2.0041E-06 -9.5091E-07  2.2182E-06 -154.616
   171    0   1.4000   0.2000   0.0500  0.10000  -1.7468E-07 -2.6600E-07  3.1823E-07 -123.293
   172    0   1.4000   0.2000   0.1500  0.10000   1.6021E-06 -1.9847E-06  2.5507E-06  -51.089
   173    0   1.4000   0.2000   0.2500  0.10000   4.6774E-06 -3.9703E-06  6.1352E-06  -40.325
   174    0   1.4000   0.2000   0.3500  0.10000   7.3197E-06 -5.0107E-06  8.8705E-06  -34.394
   175    0   1.4000   0.2000   0.4500  0.10000   8.2290E-06 -4.5054E-06  9.3816E-06  -28.701
   176    0   1.4000   0.2000   0.5500  0.10000   6.9233E-06 -2.5741E-06  7.3863E-06  -20.395
   177    0   1.4000   0.2000   0.6500  0.10000   3.8898E-06  4.6286E-08  3.8901E-06    0.682
   178    0   1.4000   0.2000   0.7500  0.10000   4.0320E-07  2.2866E-06  2.3219E-06   80.000
   179    0   1.4000   0.2000   0.8500  0.10000  -1.9231E-06  3.1140E-06  3.6600E-06  121.698
   180    0   1.4000   0.2000   0.9500  0.10000  -1.5965E-06  1.7546E-06  2.3722E-06  132.300
   181    0   1.6000   0.2000   0.0500  0.10000  -2.3008E-07  2.1583E-07  3.1547E-07  136.830
   182    0   1.6000   0.2000   0.1500  0.10000  -9.5799E-07 -1.3722E-06  1.6735E-06 -124.920
   183    0   1.6000   0.2000   0.2500  0.10000  -1.4682E-06 -4.1272E-06  4.3806E-06 -109.582
   184    0   1.6000   0.2000   0.3500  0.10000  -1.3301E-06 -6.4298E-06  6.5660E-06 -101.687
   185    0   1.6000   0.2000   0.4500  0.10000  -4.8532E-07 -7.1254E-06  7.1419E-06  -93.896
   186    0   1.6000   0.2000   0.5500  0.10000   7.8139E-07 -5.8300E-06  5.8822E-06  -82.366
   187    0   1.6000   0.2000   0.6500  0.10000   1.9810E-06 -3.0309E-06  3.6209E-06  -56.832
   188    0   1.6000   0.2000   0.7500  0.10000   2.6142E-06  9.7020E-08  2.6160E-06    2.125
   189    0   1.6000   0.2000   0.8500  0.10000   2.3507E-06  2.0934E-06  3.1477E-06   41.687
   190    0   1.6000   0.2000   0.9500  0.10000   1.0728E-06  1.6001E-06  1.9264E-06   56.159
   191    0   1.8000   0.2000   0.0500  0.10000   8.9935E-07  7.4699E-07  1.1691E-06   39.712
   192    0   1.8000   0.2000   0.1500  0.10000   6.5188E-07  1.6762E-06  1.7985E-06   68.749
   193    0   1.8000   0.2000   0.2500  0.10000  -1.0567E-06  1.8134E-06  2.0988E-06  120.229
   194    0   1.8000   0.2000   0.3500  0.10000  -2.9378E-06  1.1653E-06  3.1605E-06  158.363
   195    0   1.8000   0.2000   0.4500  0.10000  -3.9663E-06 -2.2590E-08  3.9663E-06 -179.674
   196    0   1.8000   0.2000   0.5500  0.10000  -3.6273E-06 -1.3051E-06  3.8549E-06 -160.212
   197    0   1.8000   0.2000   0.6500  0.10000  -2.0680E-06 -2.1955E-06  3.0161E-06 -133.287
   198    0   1.8000   0.2000   0.7500  0.10000  -3.1237E-08 -2.3572E-06  2.3575E-06  -90.759
   199    0   1.8000   0.2000   0.8500  0.10000   1.4078E-06 -1.7508E-06  2.2466E-06  -51.198
   200    0   1.8000   0.2000   0.9500  0.10000   1.1385E-06 -6.4092E-07  1.3065E-06  -29.378
   201    0   0.0000   0.4000   0.0500  0.10000   3.8526E-05 -4.6930E-05  6.0718E-05  -50.617
   202    0   0.0000   0.4000   0.1500  0.10000   9.9124E-05 -1.3329E-04  1.6611E-04  -53.363
   203    0   0.0000   0.4000   0.2500  0.10000   1.3650E-04 -1.8283E-04  2.2816E-04  -53.255
   204    0   0.0000   0.4000   0.3500  0.10000   1.4609E-04 -1.6929E-04  2.2361E-04  -49.209
   205    0   0.0000   0.4000   0.4500  0.10000   1.2883E-04 -9.2425E-05  1.5856E-04  -35.655
   206    0   0.0000   0.4000   0.5500  0.10000   9.2286E-05  1.9906E-05  9.4408E-05   12.172
   207    0   0.0000   0.4000   0.6500  0.10000   4.8470E-05  1.2279E-04  1.3201E-04   68.459
   208    0   0.0000   0.4000   0.7500  0.10000   1.0525E-05  1.7360E-04  1.7392E-04   86.530
   209    0   0.0000   0.4000   0.8500  0.10000  -1.0895E-05  1.5113E-04  1.5153E-04   94.123
   210    0   0.0000   0.4000   0.9500  0.10000  -9.8807E-06  6.3085E-05  6.3854E-05   98.902
   211    0   0.2000   0.4000   0.0500  0.10000  -1.2291E-05 -2.1428E-05  2.4703E-05 -119.838
   212    0   0.2000   0.4000   0.1500  0.10000  -2.6568E-05 -6.2175E-05  6.7614E-05 -113.138
   213    0   0.2000   0.4000   0.2500  0.10000  -2.1478E-05 -8.5103E-05  8.7772E-05 -104.164
   214    0   0.2000   0.4000   0.3500  0.10000   5.6337E-06 -7.5441E-05  7.5651E-05  -85.729
   215    0   0.2000   0.4000   0.4500  0.10000   4.8165E-05 -3.2352E-05  5.8022E-05  -33.889
   216    0   0.2000   0.4000   0.5500  0.10000   9.1682E-05  2.9334E-05  9.6261E-05   17.742
   217    0   0.2000   0.4000   0.6500  0.10000   1.1945E-04  8.5027E-05  1.4662E-04   35.445
   218    0   0.2000   0.4000   0.7500  0.10000   1.1923E-04  1.1105E-04  1.6294E-04   42.966
   219    0   0.2000   0.4000   0.8500  0.10000   8.8384E-05  9.5173E-05  1.2988E-04   47.118
   220    0   0.2000   0.4000   0.9500  0.10000   3.3857E-05  4.0153E-05  5.2522E-05   49.862
   221    0   0.4000   0.4000   0.0500  0.10000   3.2795E-06  3.2572E-06  4.6221E-06   44.805
   222    0   0.4000   0.4000   0.1500  0.10000   7.1727E-06  2.6917E-06  7.6611E-06   20.570
   223    0   0.4000   0.4000   0.2500  0.10000   1.1086E-05 -2.9179E-06  1.1463E-05  -14.746
   224    0   0.4000   0.4000   0.3500  0.10000   1.7578E-05 -8.3401E-06  1.9457E-05  -25.382
   225    0   0.4000   0.4000   0.4500  0.10000   2.6997E-05 -9.5120E-06  2.8624E-05  -19.409
   226    0   0.4000   0.4000   0.5500  0.10000   3.7210E-05 -5.1904E-06  3.7570E-05   -7.941
   227    0   0.4000   0.4000   0.6500  0.10000   4.4333E-05  2.6472E-06  4.4412E-05    3.417
   228    0   0.4000   0.4000   0.7500  0.10000   4.4295E-05  9.9222E-06  4.5393E-05   12.626
   229    0   0.4000   0.4000   0.8500  0.10000   3.4490E-05  1.2350E-05  3.6634E-05   19.700
   230    0   0.4000   0.4000   0.9500  0.10000   1.4323E-05  6.7434E-06  1.5831E-05   25.211
   231    0   0.6000   0.4000   0.0500  0.10000   4.9558E-06  5.0633E-06  7.0850E-06   45.615
   232    0   0.6000   0.4000   0.1500  0.10000   8.4078E-06  1.1057E-05  1.3891E-05   52.752
   233    0   0.6000   0.4000   0.2500  0.10000   7.1716E-06  1.1312E-05  1.3394E-05   57.627
   234    0   0.6000   0.4000   0.3500  0.10000   5.0808E-06  6.2586E-06  8.0613E-06   50.930
   235    0   0.6000   0.4000   0.4500  0.10000   5.0581E-06 -1.9670E-06  5.4271E-06  -21.251
   236    0   0.6000   0.4000   0.5500  0.10000   8.0985E-06 -1.0199E-05  1.3024E-05  -51.550
   237    0   0.6000   0.4000   0.6500  0.10000   1.2949E-05 -1.5424E-05  2.0139E-05  -49.985
   238    0   0.6000   0.4000   0.7500  0.10000   1.6675E-05 -1.5868E-05  2.3018E-05  -43.579
   239    0   0.6000   0.4000   0.8500  0.10000   1.5975E-05 -1.1603E-05  1.9744E-05  -35.991
   240    0   0.6000   0.4000   0.9500  0.10000   7.8779E-06 -4.2804E-06  8.9657E-06  -28.517
   241    0   0.8000   0.4000   0.0500  0.10000   5.4009E-06  1.3443E-07  5.4026E-06    1.426
   242    0   0.8000   0.4000   0.1500  0.10000   1.0628E-05  2.6017E-06  1.0942E-05   13.755
   243    0   0.8000   0.4000   0.2500  0.10000   1.0192E-05  5.4986E-06  1.1581E-05   28.346
   244    0   0.8000   0.4000   0.3500  0.10000   6.0815E-06  6.5164E-06  8.9134E-06   46.977
   245    0   0.8000   0.4000   0.4500  0.10000   8.2238E-07  4.5814E-06  4.6546E-06   79.824
   246    0   0.8000   0.4000   0.5500  0.10000  -3.1135E-06  9.0373E-08  3.1148E-06  178.337
   247    0   0.8000   0.4000   0.6500  0.10000  -4.1000E-06 -5.3456E-06  6.7368E-06 -127.487
   248    0   0.8000   0.4000   0.7500  0.10000  -2.3431E-06 -9.3643E-06  9.6529E-06 -104.048
   249    0   0.8000   0.4000   0.8500  0.10000   2.8756E-07 -9.7156E-06  9.7198E-06  -88.305
   250    0   0.8000   0.4000   0.9500  0.10000   1.1144E-06 -4.8609E-06  4.9870E-06  -77.088
   251    0   1.0000   0.4000   0.0500  0.10000   3.2276E-06 -3.4419E-06  4.7185E-06  -46.841
   252    0   1.0000   0.4000   0.1500  0.10000   8.2498E-06 -5.4321E-06  9.8776E-06  -33.363
   253    0   1.0000   0.4000   0.2500  0.10000   1.0529E-05 -3.1048E-06  1.0977E-05  -16.430
   254    0   1.0000   0.4000   0.3500  0.10000   9.4399E-06  1.1373E-06  9.5081E-06    6.870
   255    0   1.0000   0.4000   0.4500  0.10000   5.4999E-06  4.8902E-06  7.3595E-06   41.642
   256    0   1.0000   0.4000   0.5500  0.10000   2.0472E-07  6.3903E-06  6.3936E-06   88.165
   257    0   1.0000   0.4000   0.6500  0.10000  -4.5720E-06  5.1733E-06  6.9041E-06  131.470
   258    0   1.0000   0.4000   0.7500  0.10000  -7.1525E-06  2.1234E-06  7.4610E-06  163.465
   259    0   1.0000   0.4000   0.8500  0.10000  -6.6294E-06 -8.3902E-07  6.6823E-06 -172.787
   260    0   1.0000   0.4000   0.9500  0.10000  -2.9818E-06 -1.3867E-06  3.2885E-06 -155.059
   261    0   1.2000   0.4000   0.0500  0.10000  -1.4877E-06 -1.9779E-06  2.4749E-06 -126.950
   262    0   1.2000   0.4000   0.1500  0.10000  -1.3526E-06 -4.0755E-06  4.2941E-06 -108.360
   263    0   1.2000   0.4000   0.2500  0.10000   1.1791E-06 -4.0533E-06  4.2213E-06  -73.780
   264    0   1.2000   0.4000   0.3500  0.10000   4.2765E-06 -2.4425E-06  4.9248E-06  -29.733
   265    0   1.2000   0.4000   0.4500  0.10000   6.3604E-06 -1.4236E-07  6.3620E-06   -1.282
   266    0   1.2000   0.4000   0.5500  0.10000   6.4850E-06  1.8471E-06  6.7430E-06   15.899
   267    0   1.2000   0.4000   0.6500  0.10000   4.6381E-06  2.8076E-06  5.4216E-06   31.188
   268    0   1.2000   0.4000   0.7500  0.10000   1.7200E-06  2.5537E-06  3.0789E-06   56.038
   269    0   1.2000   0.4000   0.8500  0.10000  -7.6487E-07  1.4758E-06  1.6622E-06  117.397
   270    0   1.2000   0.4000   0.9500  0.10000  -1.1432E-06  3.4133E-07  1.1931E-06  163.376
   271    0   1.4000   0.4000   0.0500  0.10000  -1.5581E-06 -4.3301E-07  1.6171E-06 -164.468
   272    0   1.4000   0.4000   0.1500  0.10000  -2.5012E-06 -2.4367E-06  3.4919E-06 -135.748
   273    0   1.4000   0.4000   0.2500  0.10000  -1.4090E-06 -4.7003E-06  4.9069E-06 -106.688
   274    0   1.4000   0.4000   0.3500  0.10000   7.2374E-07 -5.9831E-06  6.0267E-06  -83.103
   275    0   1.4000   0.4000   0.4500  0.10000   2.8068E-06 -5.6168E-06  6.2791E-06  -63.448
   276    0   1.4000   0.4000   0.5500  0.10000   3.9398E-06 -3.6660E-06  5.3816E-06  -42.938
   277    0   1.4000   0.4000   0.6500  0.10000   3.7265E-06 -8.6540E-07  3.8257E-06  -13.074
   278    0   1.4000   0.4000   0.7500  0.10000   2.4054E-06  1.6624E-06  2.9240E-06   34.649
   279    0   1.4000   0.4000   0.8500  0.10000   7.5918E-07  2.7926E-06  2.8940E-06   74.792
   280    0   1.4000   0.4000   0.9500  0.10000  -1.5612E-07  1.6695E-06  1.6768E-06   95.342
   281    0   1.6000   0.4000   0.0500  0.10000  -9.6317E-07  1.0146E-06  1.3989E-06  133.512
   282    0   1.6000   0.4000   0.1500  0.10000  -3.0003E-06  1.0766E-06  3.1877E-06  160.260
   283    0   1.6000   0.4000   0.2500  0.10000  -4.4277E-06 -4.6742E-07  4.4523E-06 -173.974
   284    0   1.6000   0.4000   0.3500  0.10000  -4.5501E-06 -2.5103E-06  5.1967E-06 -151.114
   285    0   1.6000   0.4000   0.4500  0.10000  -3.2306E-06 -4.0344E-06  5.1685E-06 -128.687
   286    0   1.6000   0.4000   0.5500  0.10000  -9.2619E-07 -4.3668E-06  4.4639E-06 -101.975
   287    0   1.6000   0.4000   0.6500  0.10000   1.5026E-06 -3.3991E-06  3.7164E-06  -66.152
   288    0   1.6000   0.4000   0.7500  0.10000   3.1177E-06 -1.6182E-06  3.5126E-06  -27.430
   289    0   1.6000   0.4000   0.8500  0.10000   3.2365E-06  5.7565E-08  3.2370E-06    1.019
   290    0   1.6000   0.4000   0.9500  0.10000   1.5745E-06  5.4870E-07  1.6673E-06   19.214
   291    0   1.8000   0.4000   0.0500  0.10000   1.2973E-06  7.9858E-07  1.5234E-06   31.616
   292    0   1.8000   0.4000   0.1500  0.10000   1.9282E-06  2.0626E-06  2.8235E-06   46.928
   293    0   1.8000   0.4000   0.2500  0.10000   8.6088E-07  2.6709E-06  2.8062E-06   72.135
   294    0   1.8000   0.4000   0.3500  0.10000  -9.4069E-07  2.4258E-06  2.6018E-06  111.196
   295    0   1.8000   0.4000   0.4500  0.10000  -2.5278E-06  1.4097E-06  2.8943E-06  150.854
   296    0   1.8000   0.4000   0.5500  0.10000  -3.1938E-06 -6.2563E-09  3.1938E-06 -179.888
   297    0   1.8000   0.4000   0.6500  0.10000  -2.7099E-06 -1.2937E-06  3.0029E-06 -154.480
   298    0   1.8000   0.4000   0.7500  0.10000  -1.4000E-06 -1.9682E-06  2.4154E-06 -125.424
   299    0   1.8000   0.4000   0.8500  0.10000  -2.7909E-08 -1.7788E-06  1.7790E-06  -90.899
   300    0   1.8000   0.4000   0.9500  0.10000   4.3571E-07 -7.7143E-07  8.8597E-07  -60.542



                                        - - - POWER BUDGET - - -

                                           INPUT POWER   = 3.3795E-04 WATTS
                                           RADIATED POWER= 3.3795E-04 WATTS
                                           STRUCTURE LOSS= 0.0000E+00 WATTS
                                           NETWORK LOSS  = 0.0000E+00 WATTS
                                           EFFICIENCY    = 100.00 PERCENT






 ***** DATA CARD NO.  3   EN   0     0     0     0  0.00000E+00  0.00000E+00  0.00000E+00  0.00000E+00  0.00000E+00  0.00000E+00

 RUN TIME =     4.220
