1



                                 *********************************************

                                    NUMERICAL ELECTROMAGNETICS CODE (NEC-2D)

                                 *********************************************




                                     - - - - COMMENTS - - - -


                          PLT Vertial Dipole Model #1                                                  




                                 - - - STRUCTURE SPECIFICATION - - -

                                     COORDINATES MUST BE INPUT IN
                                     METERS OR BE SCALED TO METERS
                                     BEFORE STRUCTURE INPUT IS ENDED


  WIRE                                                                               NO. OF    FIRST  LAST     TAG
  NO.        X1         Y1         Z1          X2         Y2         Z2      RADIUS   SEG.     SEG.   SEG.     NO.
     1    0.00000    0.00000    0.10000     0.00000    0.00000    6.00000    0.00200     30        1    30       1

   GROUND PLANE SPECIFIED.

   WHERE WIRE ENDS TOUCH GROUND, CURRENT WILL BE INTERPOLATED TO IMAGE IN GROUND PLANE.


   TOTAL SEGMENTS USED=   30     NO. SEG. IN A SYMMETRIC CELL=   30     SYMMETRY FLAG=  0


         - MULTIPLE WIRE JUNCTIONS -
 JUNCTION    SEGMENTS  (- FOR END 1, + FOR END 2)
  NONE




                                 - - - - SEGMENTATION DATA - - - -

                                        COORDINATES IN METERS

                         I+ AND I- INDICATE THE SEGMENTS BEFORE AND AFTER I


  SEG.   COORDINATES OF SEG. CENTER     SEG.     ORIENTATION ANGLES    WIRE    CONNECTION DATA   TAG
  NO.       X         Y         Z       LENGTH     ALPHA     BETA      RADIUS    I-   I    I+    NO.
     1   0.00000   0.00000   0.19833   0.19667   90.00000   0.00000   0.00200     0    1    2      1
     2   0.00000   0.00000   0.39500   0.19667   90.00000   0.00000   0.00200     1    2    3      1
     3   0.00000   0.00000   0.59167   0.19667   90.00000   0.00000   0.00200     2    3    4      1
     4   0.00000   0.00000   0.78833   0.19667   90.00000   0.00000   0.00200     3    4    5      1
     5   0.00000   0.00000   0.98500   0.19667   90.00000   0.00000   0.00200     4    5    6      1
     6   0.00000   0.00000   1.18167   0.19667   90.00000   0.00000   0.00200     5    6    7      1
     7   0.00000   0.00000   1.37833   0.19667   90.00000   0.00000   0.00200     6    7    8      1
     8   0.00000   0.00000   1.57500   0.19667   90.00000   0.00000   0.00200     7    8    9      1
     9   0.00000   0.00000   1.77167   0.19667   90.00000   0.00000   0.00200     8    9   10      1
    10   0.00000   0.00000   1.96833   0.19667   90.00000   0.00000   0.00200     9   10   11      1
    11   0.00000   0.00000   2.16500   0.19667   90.00000   0.00000   0.00200    10   11   12      1
    12   0.00000   0.00000   2.36167   0.19667   90.00000   0.00000   0.00200    11   12   13      1
    13   0.00000   0.00000   2.55833   0.19667   90.00000   0.00000   0.00200    12   13   14      1
    14   0.00000   0.00000   2.75500   0.19667   90.00000   0.00000   0.00200    13   14   15      1
    15   0.00000   0.00000   2.95167   0.19667   90.00000   0.00000   0.00200    14   15   16      1
    16   0.00000   0.00000   3.14833   0.19667   90.00000   0.00000   0.00200    15   16   17      1
    17   0.00000   0.00000   3.34500   0.19667   90.00000   0.00000   0.00200    16   17   18      1
    18   0.00000   0.00000   3.54167   0.19667   90.00000   0.00000   0.00200    17   18   19      1
    19   0.00000   0.00000   3.73833   0.19667   90.00000   0.00000   0.00200    18   19   20      1
    20   0.00000   0.00000   3.93500   0.19667   90.00000   0.00000   0.00200    19   20   21      1
    21   0.00000   0.00000   4.13167   0.19667   90.00000   0.00000   0.00200    20   21   22      1
    22   0.00000   0.00000   4.32833   0.19667   90.00000   0.00000   0.00200    21   22   23      1
    23   0.00000   0.00000   4.52500   0.19667   90.00000   0.00000   0.00200    22   23   24      1
    24   0.00000   0.00000   4.72167   0.19667   90.00000   0.00000   0.00200    23   24   25      1
    25   0.00000   0.00000   4.91833   0.19667   90.00000   0.00000   0.00200    24   25   26      1
    26   0.00000   0.00000   5.11500   0.19667   90.00000   0.00000   0.00200    25   26   27      1
    27   0.00000   0.00000   5.31167   0.19667   90.00000   0.00000   0.00200    26   27   28      1
    28   0.00000   0.00000   5.50833   0.19667   90.00000   0.00000   0.00200    27   28   29      1
    29   0.00000   0.00000   5.70500   0.19667   90.00000   0.00000   0.00200    28   29   30      1
    30   0.00000   0.00000   5.90167   0.19667   90.00000   0.00000   0.00200    29   30    0      1






 ***** DATA CARD NO.  1   GN   2     0     0     0  2.00000E+01  1.50000E-02  2.00000E+01  1.50000E-02  1.00000E+02  0.00000E+00
 ***** DATA CARD NO.  2   EX   0     1     1     0  1.00000E+00  0.00000E+00  0.00000E+00  0.00000E+00  0.00000E+00  0.00000E+00
 ***** DATA CARD NO.  3   FR   0     1     0     0  1.00000E+01  1.00000E+00  0.00000E+00  0.00000E+00  0.00000E+00  0.00000E+00
 ***** DATA CARD NO.  4   RP   0     9    36     0  0.00000E+00  0.00000E+00  1.00000E+01  1.00000E+01  9.00000E+03  0.00000E+00




                                 - - - - - - FREQUENCY - - - - - -

                                    FREQUENCY= 1.0000E+01 MHZ
                                    WAVELENGTH= 2.9979E+01 METERS




                    APPROXIMATE INTEGRATION EMPLOYED FOR SEGMENTS MORE THAN   1.000 WAVELENGTHS APART



                               - - - STRUCTURE IMPEDANCE LOADING - - -

                                   THIS STRUCTURE IS NOT LOADED



                                  - - - ANTENNA ENVIRONMENT - - -

                                        FINITE GROUND.  SOMMERFELD SOLUTION
                                        RELATIVE DIELECTRIC CONST.= 20.000
                                        CONDUCTIVITY= 1.500E-02 MHOS/METER
                                        COMPLEX DIELECTRIC CONSTANT= 2.00000E+01-2.69627E+01



                                - - - MATRIX TIMING - - -

                        FILL=    0.092 SEC.,  FACTOR=    0.001 SEC.



                                          - - - ANTENNA INPUT PARAMETERS - - -

   TAG   SEG.    VOLTAGE (VOLTS)         CURRENT (AMPS)         IMPEDANCE (OHMS)        ADMITTANCE (MHOS)      POWER
   NO.   NO.    REAL        IMAG.       REAL        IMAG.       REAL        IMAG.       REAL        IMAG.     (WATTS)
     1     1 1.00000E+00 0.00000E+00 2.97656E-07 6.72231E-05 6.58671E+01-1.48755E+04 2.97656E-07 6.72231E-05 1.48828E-07



                             - - - CURRENTS AND LOCATION - - -

                                 DISTANCES IN WAVELENGTHS


  SEG.  TAG    COORD. OF SEG. CENTER     SEG.            - - - CURRENT (AMPS) - - -
  NO.   NO.     X        Y        Z      LENGTH     REAL        IMAG.       MAG.        PHASE
     1    1   0.0000   0.0000   0.0066  0.00656   2.9766E-07  6.7223E-05  6.7224E-05   89.746
     2    1   0.0000   0.0000   0.0132  0.00656   6.8581E-07  8.0434E-05  8.0437E-05   89.511
     3    1   0.0000   0.0000   0.0197  0.00656   9.6366E-07  7.6116E-05  7.6122E-05   89.275
     4    1   0.0000   0.0000   0.0263  0.00656   1.1874E-06  7.3690E-05  7.3700E-05   89.077
     5    1   0.0000   0.0000   0.0329  0.00656   1.3734E-06  7.1630E-05  7.1643E-05   88.902
     6    1   0.0000   0.0000   0.0394  0.00656   1.5296E-06  6.9669E-05  6.9686E-05   88.742
     7    1   0.0000   0.0000   0.0460  0.00656   1.6606E-06  6.7711E-05  6.7731E-05   88.595
     8    1   0.0000   0.0000   0.0525  0.00656   1.7691E-06  6.5712E-05  6.5736E-05   88.458
     9    1   0.0000   0.0000   0.0591  0.00656   1.8571E-06  6.3652E-05  6.3679E-05   88.329
    10    1   0.0000   0.0000   0.0657  0.00656   1.9261E-06  6.1518E-05  6.1548E-05   88.207
    11    1   0.0000   0.0000   0.0722  0.00656   1.9771E-06  5.9306E-05  5.9339E-05   88.091
    12    1   0.0000   0.0000   0.0788  0.00656   2.0109E-06  5.7011E-05  5.7046E-05   87.980
    13    1   0.0000   0.0000   0.0853  0.00656   2.0282E-06  5.4633E-05  5.4671E-05   87.874
    14    1   0.0000   0.0000   0.0919  0.00656   2.0297E-06  5.2173E-05  5.2212E-05   87.772
    15    1   0.0000   0.0000   0.0985  0.00656   2.0158E-06  4.9630E-05  4.9671E-05   87.674
    16    1   0.0000   0.0000   0.1050  0.00656   1.9870E-06  4.7007E-05  4.7049E-05   87.580
    17    1   0.0000   0.0000   0.1116  0.00656   1.9436E-06  4.4306E-05  4.4348E-05   87.488
    18    1   0.0000   0.0000   0.1181  0.00656   1.8861E-06  4.1528E-05  4.1571E-05   87.400
    19    1   0.0000   0.0000   0.1247  0.00656   1.8147E-06  3.8676E-05  3.8718E-05   87.314
    20    1   0.0000   0.0000   0.1313  0.00656   1.7298E-06  3.5752E-05  3.5794E-05   87.230
    21    1   0.0000   0.0000   0.1378  0.00656   1.6316E-06  3.2758E-05  3.2799E-05   87.149
    22    1   0.0000   0.0000   0.1444  0.00656   1.5203E-06  2.9696E-05  2.9735E-05   87.069
    23    1   0.0000   0.0000   0.1509  0.00656   1.3962E-06  2.6568E-05  2.6604E-05   86.992
    24    1   0.0000   0.0000   0.1575  0.00656   1.2593E-06  2.3373E-05  2.3407E-05   86.916
    25    1   0.0000   0.0000   0.1641  0.00656   1.1097E-06  2.0111E-05  2.0142E-05   86.842
    26    1   0.0000   0.0000   0.1706  0.00656   9.4725E-07  1.6780E-05  1.6807E-05   86.769
    27    1   0.0000   0.0000   0.1772  0.00656   7.7158E-07  1.3371E-05  1.3394E-05   86.697
    28    1   0.0000   0.0000   0.1837  0.00656   5.8173E-07  9.8705E-06  9.8876E-06   86.627
    29    1   0.0000   0.0000   0.1903  0.00656   3.7539E-07  6.2406E-06  6.2519E-06   86.558
    30    1   0.0000   0.0000   0.1969  0.00656   1.4191E-07  2.3135E-06  2.3179E-06   86.490



                                        - - - POWER BUDGET - - -

                                           INPUT POWER   = 1.4883E-07 WATTS
                                           RADIATED POWER= 1.4883E-07 WATTS
                                           STRUCTURE LOSS= 0.0000E+00 WATTS
                                           NETWORK LOSS  = 0.0000E+00 WATTS
                                           EFFICIENCY    = 100.00 PERCENT



                                                - - - RADIATION PATTERNS - - -
                                                      RANGE= 9.000000E+03 METERS
                                                      EXP(-JKR)/R= 1.11111E-04 AT PHASE -74.77 DEGREES


  - - ANGLES - -           - POWER GAINS -       - - - POLARIZATION - - -    - - - E(THETA) - - -    - - - E(PHI) - - -
  THETA     PHI        MAJOR   MINOR   TOTAL      AXIAL     TILT   SENSE     MAGNITUDE    PHASE      MAGNITUDE    PHASE 
 DEGREES  DEGREES       DB      DB      DB        RATIO     DEG.              VOLTS/M    DEGREES      VOLTS/M    DEGREES
    0.00     0.00    -999.99 -999.99 -999.99    0.00000     0.00            0.00000E+00   -74.77    0.00000E+00   -74.77
   10.00     0.00     -17.14 -999.99  -17.14    0.00000     0.00  LINEAR    4.61121E-08   104.28    0.00000E+00   -74.77
   20.00     0.00     -11.19 -999.99  -11.19    0.00000     0.00  LINEAR    9.15083E-08   104.08    0.00000E+00   -74.77
   30.00     0.00      -7.81 -999.99   -7.81    0.00000     0.00  LINEAR    1.35032E-07   103.74    0.00000E+00   -74.77
   40.00     0.00      -5.58 -999.99   -5.58    0.00000     0.00  LINEAR    1.74673E-07   103.22    0.00000E+00   -74.77
   50.00     0.00      -4.09 -999.99   -4.09    0.00000     0.00  LINEAR    2.07155E-07   102.44    0.00000E+00   -74.77
   60.00     0.00      -3.29 -999.99   -3.29    0.00000     0.00  LINEAR    2.27302E-07   101.21    0.00000E+00   -74.77
   70.00     0.00      -3.33 -999.99   -3.33    0.00000     0.00  LINEAR    2.26112E-07    99.11    0.00000E+00   -74.77
   80.00     0.00      -5.22 -999.99   -5.22    0.00000     0.00  LINEAR    1.82080E-07    94.79    0.00000E+00   -74.77
    0.00    10.00    -999.99 -999.99 -999.99    0.00000     0.00            0.00000E+00   -74.77    0.00000E+00   -74.77
   10.00    10.00     -17.14 -999.99  -17.14    0.00000     0.00  LINEAR    4.61121E-08   104.28    0.00000E+00   -74.77
   20.00    10.00     -11.19 -999.99  -11.19    0.00000     0.00  LINEAR    9.15083E-08   104.08    0.00000E+00   -74.77
   30.00    10.00      -7.81 -999.99   -7.81    0.00000     0.00  LINEAR    1.35032E-07   103.74    0.00000E+00   -74.77
   40.00    10.00      -5.58 -999.99   -5.58    0.00000     0.00  LINEAR    1.74673E-07   103.22    0.00000E+00   -74.77
   50.00    10.00      -4.09 -999.99   -4.09    0.00000     0.00  LINEAR    2.07155E-07   102.44    0.00000E+00   -74.77
   60.00    10.00      -3.29 -999.99   -3.29    0.00000     0.00  LINEAR    2.27302E-07   101.21    0.00000E+00   -74.77
   70.00    10.00      -3.33 -999.99   -3.33    0.00000     0.00  LINEAR    2.26112E-07    99.11    0.00000E+00   -74.77
   80.00    10.00      -5.22 -999.99   -5.22    0.00000     0.00  LINEAR    1.82080E-07    94.79    0.00000E+00   -74.77
    0.00    20.00    -999.99 -999.99 -999.99    0.00000     0.00            0.00000E+00   -74.77    0.00000E+00   -74.77
   10.00    20.00     -17.14 -999.99  -17.14    0.00000     0.00  LINEAR    4.61121E-08   104.28    0.00000E+00   -74.77
   20.00    20.00     -11.19 -999.99  -11.19    0.00000     0.00  LINEAR    9.15083E-08   104.08    0.00000E+00   -74.77
   30.00    20.00      -7.81 -999.99   -7.81    0.00000     0.00  LINEAR    1.35032E-07   103.74    0.00000E+00   -74.77
   40.00    20.00      -5.58 -999.99   -5.58    0.00000     0.00  LINEAR    1.74673E-07   103.22    0.00000E+00   -74.77
   50.00    20.00      -4.09 -999.99   -4.09    0.00000     0.00  LINEAR    2.07155E-07   102.44    0.00000E+00   -74.77
   60.00    20.00      -3.29 -999.99   -3.29    0.00000     0.00  LINEAR    2.27302E-07   101.21    0.00000E+00   -74.77
   70.00    20.00      -3.33 -999.99   -3.33    0.00000     0.00  LINEAR    2.26112E-07    99.11    0.00000E+00   -74.77
   80.00    20.00      -5.22 -999.99   -5.22    0.00000     0.00  LINEAR    1.82080E-07    94.79    0.00000E+00   -74.77
    0.00    30.00    -999.99 -999.99 -999.99    0.00000     0.00            0.00000E+00   -74.77    0.00000E+00   -74.77
   10.00    30.00     -17.14 -999.99  -17.14    0.00000     0.00  LINEAR    4.61121E-08   104.28    0.00000E+00   -74.77
   20.00    30.00     -11.19 -999.99  -11.19    0.00000     0.00  LINEAR    9.15083E-08   104.08    0.00000E+00   -74.77
   30.00    30.00      -7.81 -999.99   -7.81    0.00000     0.00  LINEAR    1.35032E-07   103.74    0.00000E+00   -74.77
   40.00    30.00      -5.58 -999.99   -5.58    0.00000     0.00  LINEAR    1.74673E-07   103.22    0.00000E+00   -74.77
   50.00    30.00      -4.09 -999.99   -4.09    0.00000     0.00  LINEAR    2.07155E-07   102.44    0.00000E+00   -74.77
   60.00    30.00      -3.29 -999.99   -3.29    0.00000     0.00  LINEAR    2.27302E-07   101.21    0.00000E+00   -74.77
   70.00    30.00      -3.33 -999.99   -3.33    0.00000     0.00  LINEAR    2.26112E-07    99.11    0.00000E+00   -74.77
   80.00    30.00      -5.22 -999.99   -5.22    0.00000     0.00  LINEAR    1.82080E-07    94.79    0.00000E+00   -74.77
    0.00    40.00    -999.99 -999.99 -999.99    0.00000     0.00            0.00000E+00   -74.77    0.00000E+00   -74.77
   10.00    40.00     -17.14 -999.99  -17.14    0.00000     0.00  LINEAR    4.61121E-08   104.28    0.00000E+00   -74.77
   20.00    40.00     -11.19 -999.99  -11.19    0.00000     0.00  LINEAR    9.15083E-08   104.08    0.00000E+00   -74.77
   30.00    40.00      -7.81 -999.99   -7.81    0.00000     0.00  LINEAR    1.35032E-07   103.74    0.00000E+00   -74.77
   40.00    40.00      -5.58 -999.99   -5.58    0.00000     0.00  LINEAR    1.74673E-07   103.22    0.00000E+00   -74.77
   50.00    40.00      -4.09 -999.99   -4.09    0.00000     0.00  LINEAR    2.07155E-07   102.44    0.00000E+00   -74.77
   60.00    40.00      -3.29 -999.99   -3.29    0.00000     0.00  LINEAR    2.27302E-07   101.21    0.00000E+00   -74.77
   70.00    40.00      -3.33 -999.99   -3.33    0.00000     0.00  LINEAR    2.26112E-07    99.11    0.00000E+00   -74.77
   80.00    40.00      -5.22 -999.99   -5.22    0.00000     0.00  LINEAR    1.82080E-07    94.79    0.00000E+00   -74.77
    0.00    50.00    -999.99 -999.99 -999.99    0.00000     0.00            0.00000E+00   -74.77    0.00000E+00   -74.77
   10.00    50.00     -17.14 -999.99  -17.14    0.00000     0.00  LINEAR    4.61121E-08   104.28    0.00000E+00   -74.77
   20.00    50.00     -11.19 -999.99  -11.19    0.00000     0.00  LINEAR    9.15083E-08   104.08    0.00000E+00   -74.77
   30.00    50.00      -7.81 -999.99   -7.81    0.00000     0.00  LINEAR    1.35032E-07   103.74    0.00000E+00   -74.77
   40.00    50.00      -5.58 -999.99   -5.58    0.00000     0.00  LINEAR    1.74673E-07   103.22    0.00000E+00   -74.77
   50.00    50.00      -4.09 -999.99   -4.09    0.00000     0.00  LINEAR    2.07155E-07   102.44    0.00000E+00   -74.77
   60.00    50.00      -3.29 -999.99   -3.29    0.00000     0.00  LINEAR    2.27302E-07   101.21    0.00000E+00   -74.77
   70.00    50.00      -3.33 -999.99   -3.33    0.00000     0.00  LINEAR    2.26112E-07    99.11    0.00000E+00   -74.77
   80.00    50.00      -5.22 -999.99   -5.22    0.00000     0.00  LINEAR    1.82080E-07    94.79    0.00000E+00   -74.77
    0.00    60.00    -999.99 -999.99 -999.99    0.00000     0.00            0.00000E+00   -74.77    0.00000E+00   -74.77
   10.00    60.00     -17.14 -999.99  -17.14    0.00000     0.00  LINEAR    4.61121E-08   104.28    0.00000E+00   -74.77
   20.00    60.00     -11.19 -999.99  -11.19    0.00000     0.00  LINEAR    9.15083E-08   104.08    0.00000E+00   -74.77
   30.00    60.00      -7.81 -999.99   -7.81    0.00000     0.00  LINEAR    1.35032E-07   103.74    0.00000E+00   -74.77
   40.00    60.00      -5.58 -999.99   -5.58    0.00000     0.00  LINEAR    1.74673E-07   103.22    0.00000E+00   -74.77
   50.00    60.00      -4.09 -999.99   -4.09    0.00000     0.00  LINEAR    2.07155E-07   102.44    0.00000E+00   -74.77
   60.00    60.00      -3.29 -999.99   -3.29    0.00000     0.00  LINEAR    2.27302E-07   101.21    0.00000E+00   -74.77
   70.00    60.00      -3.33 -999.99   -3.33    0.00000     0.00  LINEAR    2.26112E-07    99.11    0.00000E+00   -74.77
   80.00    60.00      -5.22 -999.99   -5.22    0.00000     0.00  LINEAR    1.82080E-07    94.79    0.00000E+00   -74.77
    0.00    70.00    -999.99 -999.99 -999.99    0.00000     0.00            0.00000E+00   -74.77    0.00000E+00   -74.77
   10.00    70.00     -17.14 -999.99  -17.14    0.00000     0.00  LINEAR    4.61121E-08   104.28    0.00000E+00   -74.77
   20.00    70.00     -11.19 -999.99  -11.19    0.00000     0.00  LINEAR    9.15083E-08   104.08    0.00000E+00   -74.77
   30.00    70.00      -7.81 -999.99   -7.81    0.00000     0.00  LINEAR    1.35032E-07   103.74    0.00000E+00   -74.77
   40.00    70.00      -5.58 -999.99   -5.58    0.00000     0.00  LINEAR    1.74673E-07   103.22    0.00000E+00   -74.77
   50.00    70.00      -4.09 -999.99   -4.09    0.00000     0.00  LINEAR    2.07155E-07   102.44    0.00000E+00   -74.77
   60.00    70.00      -3.29 -999.99   -3.29    0.00000     0.00  LINEAR    2.27302E-07   101.21    0.00000E+00   -74.77
   70.00    70.00      -3.33 -999.99   -3.33    0.00000     0.00  LINEAR    2.26112E-07    99.11    0.00000E+00   -74.77
   80.00    70.00      -5.22 -999.99   -5.22    0.00000     0.00  LINEAR    1.82080E-07    94.79    0.00000E+00   -74.77
    0.00    80.00    -999.99 -999.99 -999.99    0.00000     0.00            0.00000E+00   -74.77    0.00000E+00   -74.77
   10.00    80.00     -17.14 -999.99  -17.14    0.00000     0.00  LINEAR    4.61121E-08   104.28    0.00000E+00   -74.77
   20.00    80.00     -11.19 -999.99  -11.19    0.00000     0.00  LINEAR    9.15083E-08   104.08    0.00000E+00   -74.77
   30.00    80.00      -7.81 -999.99   -7.81    0.00000     0.00  LINEAR    1.35032E-07   103.74    0.00000E+00   -74.77
   40.00    80.00      -5.58 -999.99   -5.58    0.00000     0.00  LINEAR    1.74673E-07   103.22    0.00000E+00   -74.77
   50.00    80.00      -4.09 -999.99   -4.09    0.00000     0.00  LINEAR    2.07155E-07   102.44    0.00000E+00   -74.77
   60.00    80.00      -3.29 -999.99   -3.29    0.00000     0.00  LINEAR    2.27302E-07   101.21    0.00000E+00   -74.77
   70.00    80.00      -3.33 -999.99   -3.33    0.00000     0.00  LINEAR    2.26112E-07    99.11    0.00000E+00   -74.77
   80.00    80.00      -5.22 -999.99   -5.22    0.00000     0.00  LINEAR    1.82080E-07    94.79    0.00000E+00   -74.77
    0.00    90.00    -999.99 -999.99 -999.99    0.00000     0.00            0.00000E+00   -74.77    0.00000E+00   -74.77
   10.00    90.00     -17.14 -999.99  -17.14    0.00000     0.00  LINEAR    4.61121E-08   104.28    0.00000E+00   -74.77
   20.00    90.00     -11.19 -999.99  -11.19    0.00000     0.00  LINEAR    9.15083E-08   104.08    0.00000E+00   -74.77
   30.00    90.00      -7.81 -999.99   -7.81    0.00000     0.00  LINEAR    1.35032E-07   103.74    0.00000E+00   -74.77
   40.00    90.00      -5.58 -999.99   -5.58    0.00000     0.00  LINEAR    1.74673E-07   103.22    0.00000E+00   -74.77
   50.00    90.00      -4.09 -999.99   -4.09    0.00000     0.00  LINEAR    2.07155E-07   102.44    0.00000E+00   -74.77
   60.00    90.00      -3.29 -999.99   -3.29    0.00000     0.00  LINEAR    2.27302E-07   101.21    0.00000E+00   -74.77
   70.00    90.00      -3.33 -999.99   -3.33    0.00000     0.00  LINEAR    2.26112E-07    99.11    0.00000E+00   -74.77
   80.00    90.00      -5.22 -999.99   -5.22    0.00000     0.00  LINEAR    1.82080E-07    94.79    0.00000E+00   -74.77
    0.00   100.00    -999.99 -999.99 -999.99    0.00000     0.00            0.00000E+00   -74.77    0.00000E+00   -74.77
   10.00   100.00     -17.14 -999.99  -17.14    0.00000     0.00  LINEAR    4.61121E-08   104.28    0.00000E+00   -74.77
   20.00   100.00     -11.19 -999.99  -11.19    0.00000     0.00  LINEAR    9.15083E-08   104.08    0.00000E+00   -74.77
   30.00   100.00      -7.81 -999.99   -7.81    0.00000     0.00  LINEAR    1.35032E-07   103.74    0.00000E+00   -74.77
   40.00   100.00      -5.58 -999.99   -5.58    0.00000     0.00  LINEAR    1.74673E-07   103.22    0.00000E+00   -74.77
   50.00   100.00      -4.09 -999.99   -4.09    0.00000     0.00  LINEAR    2.07155E-07   102.44    0.00000E+00   -74.77
   60.00   100.00      -3.29 -999.99   -3.29    0.00000     0.00  LINEAR    2.27302E-07   101.21    0.00000E+00   -74.77
   70.00   100.00      -3.33 -999.99   -3.33    0.00000     0.00  LINEAR    2.26112E-07    99.11    0.00000E+00   -74.77
   80.00   100.00      -5.22 -999.99   -5.22    0.00000     0.00  LINEAR    1.82080E-07    94.79    0.00000E+00   -74.77
    0.00   110.00    -999.99 -999.99 -999.99    0.00000     0.00            0.00000E+00   -74.77    0.00000E+00   -74.77
   10.00   110.00     -17.14 -999.99  -17.14    0.00000     0.00  LINEAR    4.61121E-08   104.28    0.00000E+00   -74.77
   20.00   110.00     -11.19 -999.99  -11.19    0.00000     0.00  LINEAR    9.15083E-08   104.08    0.00000E+00   -74.77
   30.00   110.00      -7.81 -999.99   -7.81    0.00000     0.00  LINEAR    1.35032E-07   103.74    0.00000E+00   -74.77
   40.00   110.00      -5.58 -999.99   -5.58    0.00000     0.00  LINEAR    1.74673E-07   103.22    0.00000E+00   -74.77
   50.00   110.00      -4.09 -999.99   -4.09    0.00000     0.00  LINEAR    2.07155E-07   102.44    0.00000E+00   -74.77
   60.00   110.00      -3.29 -999.99   -3.29    0.00000     0.00  LINEAR    2.27302E-07   101.21    0.00000E+00   -74.77
   70.00   110.00      -3.33 -999.99   -3.33    0.00000     0.00  LINEAR    2.26112E-07    99.11    0.00000E+00   -74.77
   80.00   110.00      -5.22 -999.99   -5.22    0.00000     0.00  LINEAR    1.82080E-07    94.79    0.00000E+00   -74.77
    0.00   120.00    -999.99 -999.99 -999.99    0.00000     0.00            0.00000E+00   -74.77    0.00000E+00   -74.77
   10.00   120.00     -17.14 -999.99  -17.14    0.00000     0.00  LINEAR    4.61121E-08   104.28    0.00000E+00   -74.77
   20.00   120.00     -11.19 -999.99  -11.19    0.00000     0.00  LINEAR    9.15083E-08   104.08    0.00000E+00   -74.77
   30.00   120.00      -7.81 -999.99   -7.81    0.00000     0.00  LINEAR    1.35032E-07   103.74    0.00000E+00   -74.77
   40.00   120.00      -5.58 -999.99   -5.58    0.00000     0.00  LINEAR    1.74673E-07   103.22    0.00000E+00   -74.77
   50.00   120.00      -4.09 -999.99   -4.09    0.00000     0.00  LINEAR    2.07155E-07   102.44    0.00000E+00   -74.77
   60.00   120.00      -3.29 -999.99   -3.29    0.00000     0.00  LINEAR    2.27302E-07   101.21    0.00000E+00   -74.77
   70.00   120.00      -3.33 -999.99   -3.33    0.00000     0.00  LINEAR    2.26112E-07    99.11    0.00000E+00   -74.77
   80.00   120.00      -5.22 -999.99   -5.22    0.00000     0.00  LINEAR    1.82080E-07    94.79    0.00000E+00   -74.77
    0.00   130.00    -999.99 -999.99 -999.99    0.00000     0.00            0.00000E+00   -74.77    0.00000E+00   -74.77
   10.00   130.00     -17.14 -999.99  -17.14    0.00000     0.00  LINEAR    4.61121E-08   104.28    0.00000E+00   -74.77
   20.00   130.00     -11.19 -999.99  -11.19    0.00000     0.00  LINEAR    9.15083E-08   104.08    0.00000E+00   -74.77
   30.00   130.00      -7.81 -999.99   -7.81    0.00000     0.00  LINEAR    1.35032E-07   103.74    0.00000E+00   -74.77
   40.00   130.00      -5.58 -999.99   -5.58    0.00000     0.00  LINEAR    1.74673E-07   103.22    0.00000E+00   -74.77
   50.00   130.00      -4.09 -999.99   -4.09    0.00000     0.00  LINEAR    2.07155E-07   102.44    0.00000E+00   -74.77
   60.00   130.00      -3.29 -999.99   -3.29    0.00000     0.00  LINEAR    2.27302E-07   101.21    0.00000E+00   -74.77
   70.00   130.00      -3.33 -999.99   -3.33    0.00000     0.00  LINEAR    2.26112E-07    99.11    0.00000E+00   -74.77
   80.00   130.00      -5.22 -999.99   -5.22    0.00000     0.00  LINEAR    1.82080E-07    94.79    0.00000E+00   -74.77
    0.00   140.00    -999.99 -999.99 -999.99    0.00000     0.00            0.00000E+00   -74.77    0.00000E+00   -74.77
   10.00   140.00     -17.14 -999.99  -17.14    0.00000     0.00  LINEAR    4.61121E-08   104.28    0.00000E+00   -74.77
   20.00   140.00     -11.19 -999.99  -11.19    0.00000     0.00  LINEAR    9.15083E-08   104.08    0.00000E+00   -74.77
   30.00   140.00      -7.81 -999.99   -7.81    0.00000     0.00  LINEAR    1.35032E-07   103.74    0.00000E+00   -74.77
   40.00   140.00      -5.58 -999.99   -5.58    0.00000     0.00  LINEAR    1.74673E-07   103.22    0.00000E+00   -74.77
   50.00   140.00      -4.09 -999.99   -4.09    0.00000     0.00  LINEAR    2.07155E-07   102.44    0.00000E+00   -74.77
   60.00   140.00      -3.29 -999.99   -3.29    0.00000     0.00  LINEAR    2.27302E-07   101.21    0.00000E+00   -74.77
   70.00   140.00      -3.33 -999.99   -3.33    0.00000     0.00  LINEAR    2.26112E-07    99.11    0.00000E+00   -74.77
   80.00   140.00      -5.22 -999.99   -5.22    0.00000     0.00  LINEAR    1.82080E-07    94.79    0.00000E+00   -74.77
    0.00   150.00    -999.99 -999.99 -999.99    0.00000     0.00            0.00000E+00   -74.77    0.00000E+00   -74.77
   10.00   150.00     -17.14 -999.99  -17.14    0.00000     0.00  LINEAR    4.61121E-08   104.28    0.00000E+00   -74.77
   20.00   150.00     -11.19 -999.99  -11.19    0.00000     0.00  LINEAR    9.15083E-08   104.08    0.00000E+00   -74.77
   30.00   150.00      -7.81 -999.99   -7.81    0.00000     0.00  LINEAR    1.35032E-07   103.74    0.00000E+00   -74.77
   40.00   150.00      -5.58 -999.99   -5.58    0.00000     0.00  LINEAR    1.74673E-07   103.22    0.00000E+00   -74.77
   50.00   150.00      -4.09 -999.99   -4.09    0.00000     0.00  LINEAR    2.07155E-07   102.44    0.00000E+00   -74.77
   60.00   150.00      -3.29 -999.99   -3.29    0.00000     0.00  LINEAR    2.27302E-07   101.21    0.00000E+00   -74.77
   70.00   150.00      -3.33 -999.99   -3.33    0.00000     0.00  LINEAR    2.26112E-07    99.11    0.00000E+00   -74.77
   80.00   150.00      -5.22 -999.99   -5.22    0.00000     0.00  LINEAR    1.82080E-07    94.79    0.00000E+00   -74.77
    0.00   160.00    -999.99 -999.99 -999.99    0.00000     0.00            0.00000E+00   -74.77    0.00000E+00   -74.77
   10.00   160.00     -17.14 -999.99  -17.14    0.00000     0.00  LINEAR    4.61121E-08   104.28    0.00000E+00   -74.77
   20.00   160.00     -11.19 -999.99  -11.19    0.00000     0.00  LINEAR    9.15083E-08   104.08    0.00000E+00   -74.77
   30.00   160.00      -7.81 -999.99   -7.81    0.00000     0.00  LINEAR    1.35032E-07   103.74    0.00000E+00   -74.77
   40.00   160.00      -5.58 -999.99   -5.58    0.00000     0.00  LINEAR    1.74673E-07   103.22    0.00000E+00   -74.77
   50.00   160.00      -4.09 -999.99   -4.09    0.00000     0.00  LINEAR    2.07155E-07   102.44    0.00000E+00   -74.77
   60.00   160.00      -3.29 -999.99   -3.29    0.00000     0.00  LINEAR    2.27302E-07   101.21    0.00000E+00   -74.77
   70.00   160.00      -3.33 -999.99   -3.33    0.00000     0.00  LINEAR    2.26112E-07    99.11    0.00000E+00   -74.77
   80.00   160.00      -5.22 -999.99   -5.22    0.00000     0.00  LINEAR    1.82080E-07    94.79    0.00000E+00   -74.77
    0.00   170.00    -999.99 -999.99 -999.99    0.00000     0.00            0.00000E+00   -74.77    0.00000E+00   -74.77
   10.00   170.00     -17.14 -999.99  -17.14    0.00000     0.00  LINEAR    4.61121E-08   104.28    0.00000E+00   -74.77
   20.00   170.00     -11.19 -999.99  -11.19    0.00000     0.00  LINEAR    9.15083E-08   104.08    0.00000E+00   -74.77
   30.00   170.00      -7.81 -999.99   -7.81    0.00000     0.00  LINEAR    1.35032E-07   103.74    0.00000E+00   -74.77
   40.00   170.00      -5.58 -999.99   -5.58    0.00000     0.00  LINEAR    1.74673E-07   103.22    0.00000E+00   -74.77
   50.00   170.00      -4.09 -999.99   -4.09    0.00000     0.00  LINEAR    2.07155E-07   102.44    0.00000E+00   -74.77
   60.00   170.00      -3.29 -999.99   -3.29    0.00000     0.00  LINEAR    2.27302E-07   101.21    0.00000E+00   -74.77
   70.00   170.00      -3.33 -999.99   -3.33    0.00000     0.00  LINEAR    2.26112E-07    99.11    0.00000E+00   -74.77
   80.00   170.00      -5.22 -999.99   -5.22    0.00000     0.00  LINEAR    1.82080E-07    94.79    0.00000E+00   -74.77
    0.00   180.00    -999.99 -999.99 -999.99    0.00000     0.00            0.00000E+00   -74.77    0.00000E+00   -74.77
   10.00   180.00     -17.14 -999.99  -17.14    0.00000     0.00  LINEAR    4.61121E-08   104.28    0.00000E+00   -74.77
   20.00   180.00     -11.19 -999.99  -11.19    0.00000     0.00  LINEAR    9.15083E-08   104.08    0.00000E+00   -74.77
   30.00   180.00      -7.81 -999.99   -7.81    0.00000     0.00  LINEAR    1.35032E-07   103.74    0.00000E+00   -74.77
   40.00   180.00      -5.58 -999.99   -5.58    0.00000     0.00  LINEAR    1.74673E-07   103.22    0.00000E+00   -74.77
   50.00   180.00      -4.09 -999.99   -4.09    0.00000     0.00  LINEAR    2.07155E-07   102.44    0.00000E+00   -74.77
   60.00   180.00      -3.29 -999.99   -3.29    0.00000     0.00  LINEAR    2.27302E-07   101.21    0.00000E+00   -74.77
   70.00   180.00      -3.33 -999.99   -3.33    0.00000     0.00  LINEAR    2.26112E-07    99.11    0.00000E+00   -74.77
   80.00   180.00      -5.22 -999.99   -5.22    0.00000     0.00  LINEAR    1.82080E-07    94.79    0.00000E+00   -74.77
    0.00   190.00    -999.99 -999.99 -999.99    0.00000     0.00            0.00000E+00   -74.77    0.00000E+00   -74.77
   10.00   190.00     -17.14 -999.99  -17.14    0.00000     0.00  LINEAR    4.61121E-08   104.28    0.00000E+00   -74.77
   20.00   190.00     -11.19 -999.99  -11.19    0.00000     0.00  LINEAR    9.15083E-08   104.08    0.00000E+00   -74.77
   30.00   190.00      -7.81 -999.99   -7.81    0.00000     0.00  LINEAR    1.35032E-07   103.74    0.00000E+00   -74.77
   40.00   190.00      -5.58 -999.99   -5.58    0.00000     0.00  LINEAR    1.74673E-07   103.22    0.00000E+00   -74.77
   50.00   190.00      -4.09 -999.99   -4.09    0.00000     0.00  LINEAR    2.07155E-07   102.44    0.00000E+00   -74.77
   60.00   190.00      -3.29 -999.99   -3.29    0.00000     0.00  LINEAR    2.27302E-07   101.21    0.00000E+00   -74.77
   70.00   190.00      -3.33 -999.99   -3.33    0.00000     0.00  LINEAR    2.26112E-07    99.11    0.00000E+00   -74.77
   80.00   190.00      -5.22 -999.99   -5.22    0.00000     0.00  LINEAR    1.82080E-07    94.79    0.00000E+00   -74.77
    0.00   200.00    -999.99 -999.99 -999.99    0.00000     0.00            0.00000E+00   -74.77    0.00000E+00   -74.77
   10.00   200.00     -17.14 -999.99  -17.14    0.00000     0.00  LINEAR    4.61121E-08   104.28    0.00000E+00   -74.77
   20.00   200.00     -11.19 -999.99  -11.19    0.00000     0.00  LINEAR    9.15083E-08   104.08    0.00000E+00   -74.77
   30.00   200.00      -7.81 -999.99   -7.81    0.00000     0.00  LINEAR    1.35032E-07   103.74    0.00000E+00   -74.77
   40.00   200.00      -5.58 -999.99   -5.58    0.00000     0.00  LINEAR    1.74673E-07   103.22    0.00000E+00   -74.77
   50.00   200.00      -4.09 -999.99   -4.09    0.00000     0.00  LINEAR    2.07155E-07   102.44    0.00000E+00   -74.77
   60.00   200.00      -3.29 -999.99   -3.29    0.00000     0.00  LINEAR    2.27302E-07   101.21    0.00000E+00   -74.77
   70.00   200.00      -3.33 -999.99   -3.33    0.00000     0.00  LINEAR    2.26112E-07    99.11    0.00000E+00   -74.77
   80.00   200.00      -5.22 -999.99   -5.22    0.00000     0.00  LINEAR    1.82080E-07    94.79    0.00000E+00   -74.77
    0.00   210.00    -999.99 -999.99 -999.99    0.00000     0.00            0.00000E+00   -74.77    0.00000E+00   -74.77
   10.00   210.00     -17.14 -999.99  -17.14    0.00000     0.00  LINEAR    4.61121E-08   104.28    0.00000E+00   -74.77
   20.00   210.00     -11.19 -999.99  -11.19    0.00000     0.00  LINEAR    9.15083E-08   104.08    0.00000E+00   -74.77
   30.00   210.00      -7.81 -999.99   -7.81    0.00000     0.00  LINEAR    1.35032E-07   103.74    0.00000E+00   -74.77
   40.00   210.00      -5.58 -999.99   -5.58    0.00000     0.00  LINEAR    1.74673E-07   103.22    0.00000E+00   -74.77
   50.00   210.00      -4.09 -999.99   -4.09    0.00000     0.00  LINEAR    2.07155E-07   102.44    0.00000E+00   -74.77
   60.00   210.00      -3.29 -999.99   -3.29    0.00000     0.00  LINEAR    2.27302E-07   101.21    0.00000E+00   -74.77
   70.00   210.00      -3.33 -999.99   -3.33    0.00000     0.00  LINEAR    2.26112E-07    99.11    0.00000E+00   -74.77
   80.00   210.00      -5.22 -999.99   -5.22    0.00000     0.00  LINEAR    1.82080E-07    94.79    0.00000E+00   -74.77
    0.00   220.00    -999.99 -999.99 -999.99    0.00000     0.00            0.00000E+00   -74.77    0.00000E+00   -74.77
   10.00   220.00     -17.14 -999.99  -17.14    0.00000     0.00  LINEAR    4.61121E-08   104.28    0.00000E+00   -74.77
   20.00   220.00     -11.19 -999.99  -11.19    0.00000     0.00  LINEAR    9.15083E-08   104.08    0.00000E+00   -74.77
   30.00   220.00      -7.81 -999.99   -7.81    0.00000     0.00  LINEAR    1.35032E-07   103.74    0.00000E+00   -74.77
   40.00   220.00      -5.58 -999.99   -5.58    0.00000     0.00  LINEAR    1.74673E-07   103.22    0.00000E+00   -74.77
   50.00   220.00      -4.09 -999.99   -4.09    0.00000     0.00  LINEAR    2.07155E-07   102.44    0.00000E+00   -74.77
   60.00   220.00      -3.29 -999.99   -3.29    0.00000     0.00  LINEAR    2.27302E-07   101.21    0.00000E+00   -74.77
   70.00   220.00      -3.33 -999.99   -3.33    0.00000     0.00  LINEAR    2.26112E-07    99.11    0.00000E+00   -74.77
   80.00   220.00      -5.22 -999.99   -5.22    0.00000     0.00  LINEAR    1.82080E-07    94.79    0.00000E+00   -74.77
    0.00   230.00    -999.99 -999.99 -999.99    0.00000     0.00            0.00000E+00   -74.77    0.00000E+00   -74.77
   10.00   230.00     -17.14 -999.99  -17.14    0.00000     0.00  LINEAR    4.61121E-08   104.28    0.00000E+00   -74.77
   20.00   230.00     -11.19 -999.99  -11.19    0.00000     0.00  LINEAR    9.15083E-08   104.08    0.00000E+00   -74.77
   30.00   230.00      -7.81 -999.99   -7.81    0.00000     0.00  LINEAR    1.35032E-07   103.74    0.00000E+00   -74.77
   40.00   230.00      -5.58 -999.99   -5.58    0.00000     0.00  LINEAR    1.74673E-07   103.22    0.00000E+00   -74.77
   50.00   230.00      -4.09 -999.99   -4.09    0.00000     0.00  LINEAR    2.07155E-07   102.44    0.00000E+00   -74.77
   60.00   230.00      -3.29 -999.99   -3.29    0.00000     0.00  LINEAR    2.27302E-07   101.21    0.00000E+00   -74.77
   70.00   230.00      -3.33 -999.99   -3.33    0.00000     0.00  LINEAR    2.26112E-07    99.11    0.00000E+00   -74.77
   80.00   230.00      -5.22 -999.99   -5.22    0.00000     0.00  LINEAR    1.82080E-07    94.79    0.00000E+00   -74.77
    0.00   240.00    -999.99 -999.99 -999.99    0.00000     0.00            0.00000E+00   -74.77    0.00000E+00   -74.77
   10.00   240.00     -17.14 -999.99  -17.14    0.00000     0.00  LINEAR    4.61121E-08   104.28    0.00000E+00   -74.77
   20.00   240.00     -11.19 -999.99  -11.19    0.00000     0.00  LINEAR    9.15083E-08   104.08    0.00000E+00   -74.77
   30.00   240.00      -7.81 -999.99   -7.81    0.00000     0.00  LINEAR    1.35032E-07   103.74    0.00000E+00   -74.77
   40.00   240.00      -5.58 -999.99   -5.58    0.00000     0.00  LINEAR    1.74673E-07   103.22    0.00000E+00   -74.77
   50.00   240.00      -4.09 -999.99   -4.09    0.00000     0.00  LINEAR    2.07155E-07   102.44    0.00000E+00   -74.77
   60.00   240.00      -3.29 -999.99   -3.29    0.00000     0.00  LINEAR    2.27302E-07   101.21    0.00000E+00   -74.77
   70.00   240.00      -3.33 -999.99   -3.33    0.00000     0.00  LINEAR    2.26112E-07    99.11    0.00000E+00   -74.77
   80.00   240.00      -5.22 -999.99   -5.22    0.00000     0.00  LINEAR    1.82080E-07    94.79    0.00000E+00   -74.77
    0.00   250.00    -999.99 -999.99 -999.99    0.00000     0.00            0.00000E+00   -74.77    0.00000E+00   -74.77
   10.00   250.00     -17.14 -999.99  -17.14    0.00000     0.00  LINEAR    4.61121E-08   104.28    0.00000E+00   -74.77
   20.00   250.00     -11.19 -999.99  -11.19    0.00000     0.00  LINEAR    9.15083E-08   104.08    0.00000E+00   -74.77
   30.00   250.00      -7.81 -999.99   -7.81    0.00000     0.00  LINEAR    1.35032E-07   103.74    0.00000E+00   -74.77
   40.00   250.00      -5.58 -999.99   -5.58    0.00000     0.00  LINEAR    1.74673E-07   103.22    0.00000E+00   -74.77
   50.00   250.00      -4.09 -999.99   -4.09    0.00000     0.00  LINEAR    2.07155E-07   102.44    0.00000E+00   -74.77
   60.00   250.00      -3.29 -999.99   -3.29    0.00000     0.00  LINEAR    2.27302E-07   101.21    0.00000E+00   -74.77
   70.00   250.00      -3.33 -999.99   -3.33    0.00000     0.00  LINEAR    2.26112E-07    99.11    0.00000E+00   -74.77
   80.00   250.00      -5.22 -999.99   -5.22    0.00000     0.00  LINEAR    1.82080E-07    94.79    0.00000E+00   -74.77
    0.00   260.00    -999.99 -999.99 -999.99    0.00000     0.00            0.00000E+00   -74.77    0.00000E+00   -74.77
   10.00   260.00     -17.14 -999.99  -17.14    0.00000     0.00  LINEAR    4.61121E-08   104.28    0.00000E+00   -74.77
   20.00   260.00     -11.19 -999.99  -11.19    0.00000     0.00  LINEAR    9.15083E-08   104.08    0.00000E+00   -74.77
   30.00   260.00      -7.81 -999.99   -7.81    0.00000     0.00  LINEAR    1.35032E-07   103.74    0.00000E+00   -74.77
   40.00   260.00      -5.58 -999.99   -5.58    0.00000     0.00  LINEAR    1.74673E-07   103.22    0.00000E+00   -74.77
   50.00   260.00      -4.09 -999.99   -4.09    0.00000     0.00  LINEAR    2.07155E-07   102.44    0.00000E+00   -74.77
   60.00   260.00      -3.29 -999.99   -3.29    0.00000     0.00  LINEAR    2.27302E-07   101.21    0.00000E+00   -74.77
   70.00   260.00      -3.33 -999.99   -3.33    0.00000     0.00  LINEAR    2.26112E-07    99.11    0.00000E+00   -74.77
   80.00   260.00      -5.22 -999.99   -5.22    0.00000     0.00  LINEAR    1.82080E-07    94.79    0.00000E+00   -74.77
    0.00   270.00    -999.99 -999.99 -999.99    0.00000     0.00            0.00000E+00   -74.77    0.00000E+00   -74.77
   10.00   270.00     -17.14 -999.99  -17.14    0.00000     0.00  LINEAR    4.61121E-08   104.28    0.00000E+00   -74.77
   20.00   270.00     -11.19 -999.99  -11.19    0.00000     0.00  LINEAR    9.15083E-08   104.08    0.00000E+00   -74.77
   30.00   270.00      -7.81 -999.99   -7.81    0.00000     0.00  LINEAR    1.35032E-07   103.74    0.00000E+00   -74.77
   40.00   270.00      -5.58 -999.99   -5.58    0.00000     0.00  LINEAR    1.74673E-07   103.22    0.00000E+00   -74.77
   50.00   270.00      -4.09 -999.99   -4.09    0.00000     0.00  LINEAR    2.07155E-07   102.44    0.00000E+00   -74.77
   60.00   270.00      -3.29 -999.99   -3.29    0.00000     0.00  LINEAR    2.27302E-07   101.21    0.00000E+00   -74.77
   70.00   270.00      -3.33 -999.99   -3.33    0.00000     0.00  LINEAR    2.26112E-07    99.11    0.00000E+00   -74.77
   80.00   270.00      -5.22 -999.99   -5.22    0.00000     0.00  LINEAR    1.82080E-07    94.79    0.00000E+00   -74.77
    0.00   280.00    -999.99 -999.99 -999.99    0.00000     0.00            0.00000E+00   -74.77    0.00000E+00   -74.77
   10.00   280.00     -17.14 -999.99  -17.14    0.00000     0.00  LINEAR    4.61121E-08   104.28    0.00000E+00   -74.77
   20.00   280.00     -11.19 -999.99  -11.19    0.00000     0.00  LINEAR    9.15083E-08   104.08    0.00000E+00   -74.77
   30.00   280.00      -7.81 -999.99   -7.81    0.00000     0.00  LINEAR    1.35032E-07   103.74    0.00000E+00   -74.77
   40.00   280.00      -5.58 -999.99   -5.58    0.00000     0.00  LINEAR    1.74673E-07   103.22    0.00000E+00   -74.77
   50.00   280.00      -4.09 -999.99   -4.09    0.00000     0.00  LINEAR    2.07155E-07   102.44    0.00000E+00   -74.77
   60.00   280.00      -3.29 -999.99   -3.29    0.00000     0.00  LINEAR    2.27302E-07   101.21    0.00000E+00   -74.77
   70.00   280.00      -3.33 -999.99   -3.33    0.00000     0.00  LINEAR    2.26112E-07    99.11    0.00000E+00   -74.77
   80.00   280.00      -5.22 -999.99   -5.22    0.00000     0.00  LINEAR    1.82080E-07    94.79    0.00000E+00   -74.77
    0.00   290.00    -999.99 -999.99 -999.99    0.00000     0.00            0.00000E+00   -74.77    0.00000E+00   -74.77
   10.00   290.00     -17.14 -999.99  -17.14    0.00000     0.00  LINEAR    4.61121E-08   104.28    0.00000E+00   -74.77
   20.00   290.00     -11.19 -999.99  -11.19    0.00000     0.00  LINEAR    9.15083E-08   104.08    0.00000E+00   -74.77
   30.00   290.00      -7.81 -999.99   -7.81    0.00000     0.00  LINEAR    1.35032E-07   103.74    0.00000E+00   -74.77
   40.00   290.00      -5.58 -999.99   -5.58    0.00000     0.00  LINEAR    1.74673E-07   103.22    0.00000E+00   -74.77
   50.00   290.00      -4.09 -999.99   -4.09    0.00000     0.00  LINEAR    2.07155E-07   102.44    0.00000E+00   -74.77
   60.00   290.00      -3.29 -999.99   -3.29    0.00000     0.00  LINEAR    2.27302E-07   101.21    0.00000E+00   -74.77
   70.00   290.00      -3.33 -999.99   -3.33    0.00000     0.00  LINEAR    2.26112E-07    99.11    0.00000E+00   -74.77
   80.00   290.00      -5.22 -999.99   -5.22    0.00000     0.00  LINEAR    1.82080E-07    94.79    0.00000E+00   -74.77
    0.00   300.00    -999.99 -999.99 -999.99    0.00000     0.00            0.00000E+00   -74.77    0.00000E+00   -74.77
   10.00   300.00     -17.14 -999.99  -17.14    0.00000     0.00  LINEAR    4.61121E-08   104.28    0.00000E+00   -74.77
   20.00   300.00     -11.19 -999.99  -11.19    0.00000     0.00  LINEAR    9.15083E-08   104.08    0.00000E+00   -74.77
   30.00   300.00      -7.81 -999.99   -7.81    0.00000     0.00  LINEAR    1.35032E-07   103.74    0.00000E+00   -74.77
   40.00   300.00      -5.58 -999.99   -5.58    0.00000     0.00  LINEAR    1.74673E-07   103.22    0.00000E+00   -74.77
   50.00   300.00      -4.09 -999.99   -4.09    0.00000     0.00  LINEAR    2.07155E-07   102.44    0.00000E+00   -74.77
   60.00   300.00      -3.29 -999.99   -3.29    0.00000     0.00  LINEAR    2.27302E-07   101.21    0.00000E+00   -74.77
   70.00   300.00      -3.33 -999.99   -3.33    0.00000     0.00  LINEAR    2.26112E-07    99.11    0.00000E+00   -74.77
   80.00   300.00      -5.22 -999.99   -5.22    0.00000     0.00  LINEAR    1.82080E-07    94.79    0.00000E+00   -74.77
    0.00   310.00    -999.99 -999.99 -999.99    0.00000     0.00            0.00000E+00   -74.77    0.00000E+00   -74.77
   10.00   310.00     -17.14 -999.99  -17.14    0.00000     0.00  LINEAR    4.61121E-08   104.28    0.00000E+00   -74.77
   20.00   310.00     -11.19 -999.99  -11.19    0.00000     0.00  LINEAR    9.15083E-08   104.08    0.00000E+00   -74.77
   30.00   310.00      -7.81 -999.99   -7.81    0.00000     0.00  LINEAR    1.35032E-07   103.74    0.00000E+00   -74.77
   40.00   310.00      -5.58 -999.99   -5.58    0.00000     0.00  LINEAR    1.74673E-07   103.22    0.00000E+00   -74.77
   50.00   310.00      -4.09 -999.99   -4.09    0.00000     0.00  LINEAR    2.07155E-07   102.44    0.00000E+00   -74.77
   60.00   310.00      -3.29 -999.99   -3.29    0.00000     0.00  LINEAR    2.27302E-07   101.21    0.00000E+00   -74.77
   70.00   310.00      -3.33 -999.99   -3.33    0.00000     0.00  LINEAR    2.26112E-07    99.11    0.00000E+00   -74.77
   80.00   310.00      -5.22 -999.99   -5.22    0.00000     0.00  LINEAR    1.82080E-07    94.79    0.00000E+00   -74.77
    0.00   320.00    -999.99 -999.99 -999.99    0.00000     0.00            0.00000E+00   -74.77    0.00000E+00   -74.77
   10.00   320.00     -17.14 -999.99  -17.14    0.00000     0.00  LINEAR    4.61121E-08   104.28    0.00000E+00   -74.77
   20.00   320.00     -11.19 -999.99  -11.19    0.00000     0.00  LINEAR    9.15083E-08   104.08    0.00000E+00   -74.77
   30.00   320.00      -7.81 -999.99   -7.81    0.00000     0.00  LINEAR    1.35032E-07   103.74    0.00000E+00   -74.77
   40.00   320.00      -5.58 -999.99   -5.58    0.00000     0.00  LINEAR    1.74673E-07   103.22    0.00000E+00   -74.77
   50.00   320.00      -4.09 -999.99   -4.09    0.00000     0.00  LINEAR    2.07155E-07   102.44    0.00000E+00   -74.77
   60.00   320.00      -3.29 -999.99   -3.29    0.00000     0.00  LINEAR    2.27302E-07   101.21    0.00000E+00   -74.77
   70.00   320.00      -3.33 -999.99   -3.33    0.00000     0.00  LINEAR    2.26112E-07    99.11    0.00000E+00   -74.77
   80.00   320.00      -5.22 -999.99   -5.22    0.00000     0.00  LINEAR    1.82080E-07    94.79    0.00000E+00   -74.77
    0.00   330.00    -999.99 -999.99 -999.99    0.00000     0.00            0.00000E+00   -74.77    0.00000E+00   -74.77
   10.00   330.00     -17.14 -999.99  -17.14    0.00000     0.00  LINEAR    4.61121E-08   104.28    0.00000E+00   -74.77
   20.00   330.00     -11.19 -999.99  -11.19    0.00000     0.00  LINEAR    9.15083E-08   104.08    0.00000E+00   -74.77
   30.00   330.00      -7.81 -999.99   -7.81    0.00000     0.00  LINEAR    1.35032E-07   103.74    0.00000E+00   -74.77
   40.00   330.00      -5.58 -999.99   -5.58    0.00000     0.00  LINEAR    1.74673E-07   103.22    0.00000E+00   -74.77
   50.00   330.00      -4.09 -999.99   -4.09    0.00000     0.00  LINEAR    2.07155E-07   102.44    0.00000E+00   -74.77
   60.00   330.00      -3.29 -999.99   -3.29    0.00000     0.00  LINEAR    2.27302E-07   101.21    0.00000E+00   -74.77
   70.00   330.00      -3.33 -999.99   -3.33    0.00000     0.00  LINEAR    2.26112E-07    99.11    0.00000E+00   -74.77
   80.00   330.00      -5.22 -999.99   -5.22    0.00000     0.00  LINEAR    1.82080E-07    94.79    0.00000E+00   -74.77
    0.00   340.00    -999.99 -999.99 -999.99    0.00000     0.00            0.00000E+00   -74.77    0.00000E+00   -74.77
   10.00   340.00     -17.14 -999.99  -17.14    0.00000     0.00  LINEAR    4.61121E-08   104.28    0.00000E+00   -74.77
   20.00   340.00     -11.19 -999.99  -11.19    0.00000     0.00  LINEAR    9.15083E-08   104.08    0.00000E+00   -74.77
   30.00   340.00      -7.81 -999.99   -7.81    0.00000     0.00  LINEAR    1.35032E-07   103.74    0.00000E+00   -74.77
   40.00   340.00      -5.58 -999.99   -5.58    0.00000     0.00  LINEAR    1.74673E-07   103.22    0.00000E+00   -74.77
   50.00   340.00      -4.09 -999.99   -4.09    0.00000     0.00  LINEAR    2.07155E-07   102.44    0.00000E+00   -74.77
   60.00   340.00      -3.29 -999.99   -3.29    0.00000     0.00  LINEAR    2.27302E-07   101.21    0.00000E+00   -74.77
   70.00   340.00      -3.33 -999.99   -3.33    0.00000     0.00  LINEAR    2.26112E-07    99.11    0.00000E+00   -74.77
   80.00   340.00      -5.22 -999.99   -5.22    0.00000     0.00  LINEAR    1.82080E-07    94.79    0.00000E+00   -74.77
    0.00   350.00    -999.99 -999.99 -999.99    0.00000     0.00            0.00000E+00   -74.77    0.00000E+00   -74.77
   10.00   350.00     -17.14 -999.99  -17.14    0.00000     0.00  LINEAR    4.61121E-08   104.28    0.00000E+00   -74.77
   20.00   350.00     -11.19 -999.99  -11.19    0.00000     0.00  LINEAR    9.15083E-08   104.08    0.00000E+00   -74.77
   30.00   350.00      -7.81 -999.99   -7.81    0.00000     0.00  LINEAR    1.35032E-07   103.74    0.00000E+00   -74.77
   40.00   350.00      -5.58 -999.99   -5.58    0.00000     0.00  LINEAR    1.74673E-07   103.22    0.00000E+00   -74.77
   50.00   350.00      -4.09 -999.99   -4.09    0.00000     0.00  LINEAR    2.07155E-07   102.44    0.00000E+00   -74.77
   60.00   350.00      -3.29 -999.99   -3.29    0.00000     0.00  LINEAR    2.27302E-07   101.21    0.00000E+00   -74.77
   70.00   350.00      -3.33 -999.99   -3.33    0.00000     0.00  LINEAR    2.26112E-07    99.11    0.00000E+00   -74.77
   80.00   350.00      -5.22 -999.99   -5.22    0.00000     0.00  LINEAR    1.82080E-07    94.79    0.00000E+00   -74.77






 ***** DATA CARD NO.  5   XQ   0     0     0     0  0.00000E+00  0.00000E+00  0.00000E+00  0.00000E+00  0.00000E+00  0.00000E+00
 ***** DATA CARD NO.  6   EN   0     0     0     0  0.00000E+00  0.00000E+00  0.00000E+00  0.00000E+00  0.00000E+00  0.00000E+00

 RUN TIME =     0.303
