1



                                 *********************************************

                                    NUMERICAL ELECTROMAGNETICS CODE (NEC-2D)

                                 *********************************************




                                     - - - - COMMENTS - - - -


                          TESTDIP1.NEC: 1GHz Half-Wave Dipole #1                                       




                                 - - - STRUCTURE SPECIFICATION - - -

                                     COORDINATES MUST BE INPUT IN
                                     METERS OR BE SCALED TO METERS
                                     BEFORE STRUCTURE INPUT IS ENDED


  WIRE                                                                               NO. OF    FIRST  LAST     TAG
  NO.        X1         Y1         Z1          X2         Y2         Z2      RADIUS   SEG.     SEG.   SEG.     NO.
     1    0.00000    0.00000   -0.07500     0.00000    0.00000    0.07500    0.00100     21        1    21       1

   TOTAL SEGMENTS USED=   21     NO. SEG. IN A SYMMETRIC CELL=   21     SYMMETRY FLAG=  0


         - MULTIPLE WIRE JUNCTIONS -
 JUNCTION    SEGMENTS  (- FOR END 1, + FOR END 2)
  NONE




                                 - - - - SEGMENTATION DATA - - - -

                                        COORDINATES IN METERS

                         I+ AND I- INDICATE THE SEGMENTS BEFORE AND AFTER I


  SEG.   COORDINATES OF SEG. CENTER     SEG.     ORIENTATION ANGLES    WIRE    CONNECTION DATA   TAG
  NO.       X         Y         Z       LENGTH     ALPHA     BETA      RADIUS    I-   I    I+    NO.
     1   0.00000   0.00000  -0.07143   0.00714   90.00000   0.00000   0.00100     0    1    2      1
     2   0.00000   0.00000  -0.06429   0.00714   90.00000   0.00000   0.00100     1    2    3      1
     3   0.00000   0.00000  -0.05714   0.00714   90.00000   0.00000   0.00100     2    3    4      1
     4   0.00000   0.00000  -0.05000   0.00714   90.00000   0.00000   0.00100     3    4    5      1
     5   0.00000   0.00000  -0.04286   0.00714   90.00000   0.00000   0.00100     4    5    6      1
     6   0.00000   0.00000  -0.03571   0.00714   90.00000   0.00000   0.00100     5    6    7      1
     7   0.00000   0.00000  -0.02857   0.00714   90.00000   0.00000   0.00100     6    7    8      1
     8   0.00000   0.00000  -0.02143   0.00714   90.00000   0.00000   0.00100     7    8    9      1
     9   0.00000   0.00000  -0.01429   0.00714   90.00000   0.00000   0.00100     8    9   10      1
    10   0.00000   0.00000  -0.00714   0.00714   90.00000   0.00000   0.00100     9   10   11      1
    11   0.00000   0.00000   0.00000   0.00714   90.00000   0.00000   0.00100    10   11   12      1
    12   0.00000   0.00000   0.00714   0.00714   90.00000   0.00000   0.00100    11   12   13      1
    13   0.00000   0.00000   0.01429   0.00714   90.00000   0.00000   0.00100    12   13   14      1
    14   0.00000   0.00000   0.02143   0.00714   90.00000   0.00000   0.00100    13   14   15      1
    15   0.00000   0.00000   0.02857   0.00714   90.00000   0.00000   0.00100    14   15   16      1
    16   0.00000   0.00000   0.03571   0.00714   90.00000   0.00000   0.00100    15   16   17      1
    17   0.00000   0.00000   0.04286   0.00714   90.00000   0.00000   0.00100    16   17   18      1
    18   0.00000   0.00000   0.05000   0.00714   90.00000   0.00000   0.00100    17   18   19      1
    19   0.00000   0.00000   0.05714   0.00714   90.00000   0.00000   0.00100    18   19   20      1
    20   0.00000   0.00000   0.06429   0.00714   90.00000   0.00000   0.00100    19   20   21      1
    21   0.00000   0.00000   0.07143   0.00714   90.00000   0.00000   0.00100    20   21    0      1






 ***** DATA CARD NO.  1   EX   0     1    11     0  1.00000E+00  0.00000E+00  0.00000E+00  0.00000E+00  0.00000E+00  0.00000E+00
 ***** DATA CARD NO.  2   FR   0    21     0     0  5.00000E+02  5.00000E+01  0.00000E+00  0.00000E+00  0.00000E+00  0.00000E+00
 ***** DATA CARD NO.  3   XQ   0     0     0     0  0.00000E+00  0.00000E+00  0.00000E+00  0.00000E+00  0.00000E+00  0.00000E+00




                                 - - - - - - FREQUENCY - - - - - -

                                    FREQUENCY= 5.0000E+02 MHZ
                                    WAVELENGTH= 5.9958E-01 METERS




                    APPROXIMATE INTEGRATION EMPLOYED FOR SEGMENTS MORE THAN   1.000 WAVELENGTHS APART



                               - - - STRUCTURE IMPEDANCE LOADING - - -

                                   THIS STRUCTURE IS NOT LOADED



                                  - - - ANTENNA ENVIRONMENT - - -

                                            FREE SPACE



                                - - - MATRIX TIMING - - -

                        FILL=    0.007 SEC.,  FACTOR=    0.000 SEC.



                                          - - - ANTENNA INPUT PARAMETERS - - -

   TAG   SEG.    VOLTAGE (VOLTS)         CURRENT (AMPS)         IMPEDANCE (OHMS)        ADMITTANCE (MHOS)      POWER
   NO.   NO.    REAL        IMAG.       REAL        IMAG.       REAL        IMAG.       REAL        IMAG.     (WATTS)
     1    11 1.00000E+00 0.00000E+00 9.29181E-05 2.61446E-03 1.35765E+01-3.82006E+02 9.29181E-05 2.61446E-03 4.64590E-05



                             - - - CURRENTS AND LOCATION - - -

                                 DISTANCES IN WAVELENGTHS


  SEG.  TAG    COORD. OF SEG. CENTER     SEG.            - - - CURRENT (AMPS) - - -
  NO.   NO.     X        Y        Z      LENGTH     REAL        IMAG.       MAG.        PHASE
     1    1   0.0000   0.0000  -0.1191  0.01191   1.4453E-05  2.3139E-04  2.3184E-04   86.426
     2    1   0.0000   0.0000  -0.1072  0.01191   3.1235E-05  5.1848E-04  5.1942E-04   86.552
     3    1   0.0000   0.0000  -0.0953  0.01191   4.4609E-05  7.6968E-04  7.7098E-04   86.683
     4    1   0.0000   0.0000  -0.0834  0.01191   5.6102E-05  1.0083E-03  1.0098E-03   86.815
     5    1   0.0000   0.0000  -0.0715  0.01191   6.5931E-05  1.2378E-03  1.2395E-03   86.951
     6    1   0.0000   0.0000  -0.0596  0.01191   7.4196E-05  1.4602E-03  1.4621E-03   87.091
     7    1   0.0000   0.0000  -0.0477  0.01191   8.0940E-05  1.6775E-03  1.6795E-03   87.238
     8    1   0.0000   0.0000  -0.0357  0.01191   8.6180E-05  1.8923E-03  1.8942E-03   87.392
     9    1   0.0000   0.0000  -0.0238  0.01191   8.9923E-05  2.1094E-03  2.1114E-03   87.559
    10    1   0.0000   0.0000  -0.0119  0.01191   9.2169E-05  2.3529E-03  2.3547E-03   87.757
    11    1   0.0000   0.0000   0.0000  0.01191   9.2918E-05  2.6145E-03  2.6161E-03   87.965
    12    1   0.0000   0.0000   0.0119  0.01191   9.2169E-05  2.3529E-03  2.3547E-03   87.757
    13    1   0.0000   0.0000   0.0238  0.01191   8.9923E-05  2.1094E-03  2.1114E-03   87.559
    14    1   0.0000   0.0000   0.0357  0.01191   8.6180E-05  1.8923E-03  1.8942E-03   87.392
    15    1   0.0000   0.0000   0.0477  0.01191   8.0940E-05  1.6775E-03  1.6795E-03   87.238
    16    1   0.0000   0.0000   0.0596  0.01191   7.4196E-05  1.4602E-03  1.4621E-03   87.091
    17    1   0.0000   0.0000   0.0715  0.01191   6.5931E-05  1.2378E-03  1.2395E-03   86.951
    18    1   0.0000   0.0000   0.0834  0.01191   5.6102E-05  1.0083E-03  1.0098E-03   86.815
    19    1   0.0000   0.0000   0.0953  0.01191   4.4609E-05  7.6968E-04  7.7098E-04   86.683
    20    1   0.0000   0.0000   0.1072  0.01191   3.1235E-05  5.1848E-04  5.1942E-04   86.552
    21    1   0.0000   0.0000   0.1191  0.01191   1.4453E-05  2.3139E-04  2.3184E-04   86.426



                                        - - - POWER BUDGET - - -

                                           INPUT POWER   = 4.6459E-05 WATTS
                                           RADIATED POWER= 4.6459E-05 WATTS
                                           STRUCTURE LOSS= 0.0000E+00 WATTS
                                           NETWORK LOSS  = 0.0000E+00 WATTS
                                           EFFICIENCY    = 100.00 PERCENT




                                 - - - - - - FREQUENCY - - - - - -

                                    FREQUENCY= 5.5000E+02 MHZ
                                    WAVELENGTH= 5.4508E-01 METERS




                    APPROXIMATE INTEGRATION EMPLOYED FOR SEGMENTS MORE THAN   1.000 WAVELENGTHS APART



                               - - - STRUCTURE IMPEDANCE LOADING - - -

                                   THIS STRUCTURE IS NOT LOADED



                                  - - - ANTENNA ENVIRONMENT - - -

                                            FREE SPACE



                                - - - MATRIX TIMING - - -

                        FILL=    0.007 SEC.,  FACTOR=    0.000 SEC.



                                          - - - ANTENNA INPUT PARAMETERS - - -

   TAG   SEG.    VOLTAGE (VOLTS)         CURRENT (AMPS)         IMPEDANCE (OHMS)        ADMITTANCE (MHOS)      POWER
   NO.   NO.    REAL        IMAG.       REAL        IMAG.       REAL        IMAG.       REAL        IMAG.     (WATTS)
     1    11 1.00000E+00 0.00000E+00 1.63974E-04 3.10153E-03 1.69985E+01-3.21523E+02 1.63974E-04 3.10153E-03 8.19870E-05



                             - - - CURRENTS AND LOCATION - - -

                                 DISTANCES IN WAVELENGTHS


  SEG.  TAG    COORD. OF SEG. CENTER     SEG.            - - - CURRENT (AMPS) - - -
  NO.   NO.     X        Y        Z      LENGTH     REAL        IMAG.       MAG.        PHASE
     1    1   0.0000   0.0000  -0.1310  0.01310   2.5191E-05  2.8452E-04  2.8563E-04   84.940
     2    1   0.0000   0.0000  -0.1179  0.01310   5.4571E-05  6.3693E-04  6.3927E-04   85.103
     3    1   0.0000   0.0000  -0.1048  0.01310   7.8105E-05  9.4419E-04  9.4742E-04   85.271
     4    1   0.0000   0.0000  -0.0917  0.01310   9.8413E-05  1.2346E-03  1.2385E-03   85.442
     5    1   0.0000   0.0000  -0.0786  0.01310   1.1584E-04  1.5119E-03  1.5164E-03   85.619
     6    1   0.0000   0.0000  -0.0655  0.01310   1.3054E-04  1.7785E-03  1.7833E-03   85.802
     7    1   0.0000   0.0000  -0.0524  0.01310   1.4256E-04  2.0360E-03  2.0409E-03   85.995
     8    1   0.0000   0.0000  -0.0393  0.01310   1.5192E-04  2.2870E-03  2.2921E-03   86.200
     9    1   0.0000   0.0000  -0.0262  0.01310   1.5861E-04  2.5369E-03  2.5418E-03   86.422
    10    1   0.0000   0.0000  -0.0131  0.01310   1.6263E-04  2.8115E-03  2.8162E-03   86.689
    11    1   0.0000   0.0000   0.0000  0.01310   1.6397E-04  3.1015E-03  3.1059E-03   86.974
    12    1   0.0000   0.0000   0.0131  0.01310   1.6263E-04  2.8115E-03  2.8162E-03   86.689
    13    1   0.0000   0.0000   0.0262  0.01310   1.5861E-04  2.5369E-03  2.5418E-03   86.422
    14    1   0.0000   0.0000   0.0393  0.01310   1.5192E-04  2.2870E-03  2.2921E-03   86.200
    15    1   0.0000   0.0000   0.0524  0.01310   1.4256E-04  2.0360E-03  2.0409E-03   85.995
    16    1   0.0000   0.0000   0.0655  0.01310   1.3054E-04  1.7785E-03  1.7833E-03   85.802
    17    1   0.0000   0.0000   0.0786  0.01310   1.1584E-04  1.5119E-03  1.5164E-03   85.619
    18    1   0.0000   0.0000   0.0917  0.01310   9.8413E-05  1.2346E-03  1.2385E-03   85.442
    19    1   0.0000   0.0000   0.1048  0.01310   7.8105E-05  9.4419E-04  9.4742E-04   85.271
    20    1   0.0000   0.0000   0.1179  0.01310   5.4571E-05  6.3693E-04  6.3927E-04   85.103
    21    1   0.0000   0.0000   0.1310  0.01310   2.5191E-05  2.8452E-04  2.8563E-04   84.940



                                        - - - POWER BUDGET - - -

                                           INPUT POWER   = 8.1987E-05 WATTS
                                           RADIATED POWER= 8.1987E-05 WATTS
                                           STRUCTURE LOSS= 0.0000E+00 WATTS
                                           NETWORK LOSS  = 0.0000E+00 WATTS
                                           EFFICIENCY    = 100.00 PERCENT




                                 - - - - - - FREQUENCY - - - - - -

                                    FREQUENCY= 6.0000E+02 MHZ
                                    WAVELENGTH= 4.9965E-01 METERS




                    APPROXIMATE INTEGRATION EMPLOYED FOR SEGMENTS MORE THAN   1.000 WAVELENGTHS APART



                               - - - STRUCTURE IMPEDANCE LOADING - - -

                                   THIS STRUCTURE IS NOT LOADED



                                  - - - ANTENNA ENVIRONMENT - - -

                                            FREE SPACE



                                - - - MATRIX TIMING - - -

                        FILL=    0.007 SEC.,  FACTOR=    0.000 SEC.



                                          - - - ANTENNA INPUT PARAMETERS - - -

   TAG   SEG.    VOLTAGE (VOLTS)         CURRENT (AMPS)         IMPEDANCE (OHMS)        ADMITTANCE (MHOS)      POWER
   NO.   NO.    REAL        IMAG.       REAL        IMAG.       REAL        IMAG.       REAL        IMAG.     (WATTS)
     1    11 1.00000E+00 0.00000E+00 2.90419E-04 3.70641E-03 2.10117E+01-2.68157E+02 2.90419E-04 3.70641E-03 1.45210E-04



                             - - - CURRENTS AND LOCATION - - -

                                 DISTANCES IN WAVELENGTHS


  SEG.  TAG    COORD. OF SEG. CENTER     SEG.            - - - CURRENT (AMPS) - - -
  NO.   NO.     X        Y        Z      LENGTH     REAL        IMAG.       MAG.        PHASE
     1    1   0.0000   0.0000  -0.1430  0.01430   4.4013E-05  3.5330E-04  3.5603E-04   82.899
     2    1   0.0000   0.0000  -0.1287  0.01430   9.5598E-05  7.9021E-04  7.9597E-04   83.102
     3    1   0.0000   0.0000  -0.1144  0.01430   1.3715E-04  1.1698E-03  1.1778E-03   83.313
     4    1   0.0000   0.0000  -0.1001  0.01430   1.7317E-04  1.5265E-03  1.5363E-03   83.528
     5    1   0.0000   0.0000  -0.0858  0.01430   2.0419E-04  1.8649E-03  1.8760E-03   83.751
     6    1   0.0000   0.0000  -0.0715  0.01430   2.3044E-04  2.1869E-03  2.1990E-03   83.985
     7    1   0.0000   0.0000  -0.0572  0.01430   2.5196E-04  2.4942E-03  2.5069E-03   84.232
     8    1   0.0000   0.0000  -0.0429  0.01430   2.6875E-04  2.7893E-03  2.8022E-03   84.497
     9    1   0.0000   0.0000  -0.0286  0.01430   2.8078E-04  3.0775E-03  3.0903E-03   84.787
    10    1   0.0000   0.0000  -0.0143  0.01430   2.8801E-04  3.3867E-03  3.3989E-03   85.139
    11    1   0.0000   0.0000   0.0000  0.01430   2.9042E-04  3.7064E-03  3.7178E-03   85.520
    12    1   0.0000   0.0000   0.0143  0.01430   2.8801E-04  3.3867E-03  3.3989E-03   85.139
    13    1   0.0000   0.0000   0.0286  0.01430   2.8078E-04  3.0775E-03  3.0903E-03   84.787
    14    1   0.0000   0.0000   0.0429  0.01430   2.6875E-04  2.7893E-03  2.8022E-03   84.497
    15    1   0.0000   0.0000   0.0572  0.01430   2.5196E-04  2.4942E-03  2.5069E-03   84.232
    16    1   0.0000   0.0000   0.0715  0.01430   2.3044E-04  2.1869E-03  2.1990E-03   83.985
    17    1   0.0000   0.0000   0.0858  0.01430   2.0419E-04  1.8649E-03  1.8760E-03   83.751
    18    1   0.0000   0.0000   0.1001  0.01430   1.7317E-04  1.5265E-03  1.5363E-03   83.528
    19    1   0.0000   0.0000   0.1144  0.01430   1.3715E-04  1.1698E-03  1.1778E-03   83.313
    20    1   0.0000   0.0000   0.1287  0.01430   9.5598E-05  7.9021E-04  7.9597E-04   83.102
    21    1   0.0000   0.0000   0.1430  0.01430   4.4013E-05  3.5330E-04  3.5603E-04   82.899



                                        - - - POWER BUDGET - - -

                                           INPUT POWER   = 1.4521E-04 WATTS
                                           RADIATED POWER= 1.4521E-04 WATTS
                                           STRUCTURE LOSS= 0.0000E+00 WATTS
                                           NETWORK LOSS  = 0.0000E+00 WATTS
                                           EFFICIENCY    = 100.00 PERCENT




                                 - - - - - - FREQUENCY - - - - - -

                                    FREQUENCY= 6.5000E+02 MHZ
                                    WAVELENGTH= 4.6122E-01 METERS




                    APPROXIMATE INTEGRATION EMPLOYED FOR SEGMENTS MORE THAN   1.000 WAVELENGTHS APART



                               - - - STRUCTURE IMPEDANCE LOADING - - -

                                   THIS STRUCTURE IS NOT LOADED



                                  - - - ANTENNA ENVIRONMENT - - -

                                            FREE SPACE



                                - - - MATRIX TIMING - - -

                        FILL=    0.007 SEC.,  FACTOR=    0.000 SEC.



                                          - - - ANTENNA INPUT PARAMETERS - - -

   TAG   SEG.    VOLTAGE (VOLTS)         CURRENT (AMPS)         IMPEDANCE (OHMS)        ADMITTANCE (MHOS)      POWER
   NO.   NO.    REAL        IMAG.       REAL        IMAG.       REAL        IMAG.       REAL        IMAG.     (WATTS)
     1    11 1.00000E+00 0.00000E+00 5.23841E-04 4.48307E-03 2.57134E+01-2.20057E+02 5.23841E-04 4.48307E-03 2.61920E-04



                             - - - CURRENTS AND LOCATION - - -

                                 DISTANCES IN WAVELENGTHS


  SEG.  TAG    COORD. OF SEG. CENTER     SEG.            - - - CURRENT (AMPS) - - -
  NO.   NO.     X        Y        Z      LENGTH     REAL        IMAG.       MAG.        PHASE
     1    1   0.0000   0.0000  -0.1549  0.01549   7.8225E-05  4.4482E-04  4.5164E-04   80.026
     2    1   0.0000   0.0000  -0.1394  0.01549   1.7040E-04  9.9414E-04  1.0086E-03   80.274
     3    1   0.0000   0.0000  -0.1239  0.01549   2.4510E-04  1.4697E-03  1.4900E-03   80.532
     4    1   0.0000   0.0000  -0.1084  0.01549   3.1014E-04  1.9143E-03  1.9392E-03   80.797
     5    1   0.0000   0.0000  -0.0929  0.01549   3.6640E-04  2.3327E-03  2.3613E-03   81.073
     6    1   0.0000   0.0000  -0.0774  0.01549   4.1416E-04  2.7269E-03  2.7581E-03   81.364
     7    1   0.0000   0.0000  -0.0619  0.01549   4.5343E-04  3.0981E-03  3.1311E-03   81.673
     8    1   0.0000   0.0000  -0.0465  0.01549   4.8413E-04  3.4484E-03  3.4823E-03   82.008
     9    1   0.0000   0.0000  -0.0310  0.01549   5.0616E-04  3.7832E-03  3.8169E-03   82.380
    10    1   0.0000   0.0000  -0.0155  0.01549   5.1941E-04  4.1320E-03  4.1645E-03   82.835
    11    1   0.0000   0.0000   0.0000  0.01549   5.2384E-04  4.4831E-03  4.5136E-03   83.335
    12    1   0.0000   0.0000   0.0155  0.01549   5.1941E-04  4.1320E-03  4.1645E-03   82.835
    13    1   0.0000   0.0000   0.0310  0.01549   5.0616E-04  3.7832E-03  3.8169E-03   82.380
    14    1   0.0000   0.0000   0.0465  0.01549   4.8413E-04  3.4484E-03  3.4823E-03   82.008
    15    1   0.0000   0.0000   0.0619  0.01549   4.5343E-04  3.0981E-03  3.1311E-03   81.673
    16    1   0.0000   0.0000   0.0774  0.01549   4.1416E-04  2.7269E-03  2.7581E-03   81.364
    17    1   0.0000   0.0000   0.0929  0.01549   3.6640E-04  2.3327E-03  2.3613E-03   81.073
    18    1   0.0000   0.0000   0.1084  0.01549   3.1014E-04  1.9143E-03  1.9392E-03   80.797
    19    1   0.0000   0.0000   0.1239  0.01549   2.4510E-04  1.4697E-03  1.4900E-03   80.532
    20    1   0.0000   0.0000   0.1394  0.01549   1.7040E-04  9.9414E-04  1.0086E-03   80.274
    21    1   0.0000   0.0000   0.1549  0.01549   7.8225E-05  4.4482E-04  4.5164E-04   80.026



                                        - - - POWER BUDGET - - -

                                           INPUT POWER   = 2.6192E-04 WATTS
                                           RADIATED POWER= 2.6192E-04 WATTS
                                           STRUCTURE LOSS= 0.0000E+00 WATTS
                                           NETWORK LOSS  = 0.0000E+00 WATTS
                                           EFFICIENCY    = 100.00 PERCENT




                                 - - - - - - FREQUENCY - - - - - -

                                    FREQUENCY= 7.0000E+02 MHZ
                                    WAVELENGTH= 4.2827E-01 METERS




                    APPROXIMATE INTEGRATION EMPLOYED FOR SEGMENTS MORE THAN   1.000 WAVELENGTHS APART



                               - - - STRUCTURE IMPEDANCE LOADING - - -

                                   THIS STRUCTURE IS NOT LOADED



                                  - - - ANTENNA ENVIRONMENT - - -

                                            FREE SPACE



                                - - - MATRIX TIMING - - -

                        FILL=    0.007 SEC.,  FACTOR=    0.000 SEC.



                                          - - - ANTENNA INPUT PARAMETERS - - -

   TAG   SEG.    VOLTAGE (VOLTS)         CURRENT (AMPS)         IMPEDANCE (OHMS)        ADMITTANCE (MHOS)      POWER
   NO.   NO.    REAL        IMAG.       REAL        IMAG.       REAL        IMAG.       REAL        IMAG.     (WATTS)
     1    11 1.00000E+00 0.00000E+00 9.78580E-04 5.51210E-03 3.12238E+01-1.75876E+02 9.78580E-04 5.51210E-03 4.89290E-04



                             - - - CURRENTS AND LOCATION - - -

                                 DISTANCES IN WAVELENGTHS


  SEG.  TAG    COORD. OF SEG. CENTER     SEG.            - - - CURRENT (AMPS) - - -
  NO.   NO.     X        Y        Z      LENGTH     REAL        IMAG.       MAG.        PHASE
     1    1   0.0000   0.0000  -0.1668  0.01668   1.4382E-04  5.6949E-04  5.8737E-04   75.826
     2    1   0.0000   0.0000  -0.1501  0.01668   3.1427E-04  1.2721E-03  1.3103E-03   76.123
     3    1   0.0000   0.0000  -0.1334  0.01668   4.5330E-04  1.8784E-03  1.9323E-03   76.432
     4    1   0.0000   0.0000  -0.1167  0.01668   5.7499E-04  2.4423E-03  2.5091E-03   76.752
     5    1   0.0000   0.0000  -0.1001  0.01668   6.8068E-04  2.9689E-03  3.0460E-03   77.087
     6    1   0.0000   0.0000  -0.0834  0.01668   7.7072E-04  3.4599E-03  3.5447E-03   77.442
     7    1   0.0000   0.0000  -0.0667  0.01668   8.4498E-04  3.9158E-03  4.0059E-03   77.823
     8    1   0.0000   0.0000  -0.0500  0.01668   9.0316E-04  4.3380E-03  4.4310E-03   78.239
     9    1   0.0000   0.0000  -0.0334  0.01668   9.4497E-04  4.7313E-03  4.8248E-03   78.705
    10    1   0.0000   0.0000  -0.0167  0.01668   9.7016E-04  5.1271E-03  5.2181E-03   79.285
    11    1   0.0000   0.0000   0.0000  0.01668   9.7858E-04  5.5121E-03  5.5983E-03   79.933
    12    1   0.0000   0.0000   0.0167  0.01668   9.7016E-04  5.1271E-03  5.2181E-03   79.285
    13    1   0.0000   0.0000   0.0334  0.01668   9.4497E-04  4.7313E-03  4.8248E-03   78.705
    14    1   0.0000   0.0000   0.0500  0.01668   9.0316E-04  4.3380E-03  4.4310E-03   78.239
    15    1   0.0000   0.0000   0.0667  0.01668   8.4498E-04  3.9158E-03  4.0059E-03   77.823
    16    1   0.0000   0.0000   0.0834  0.01668   7.7072E-04  3.4599E-03  3.5447E-03   77.442
    17    1   0.0000   0.0000   0.1001  0.01668   6.8068E-04  2.9689E-03  3.0460E-03   77.087
    18    1   0.0000   0.0000   0.1167  0.01668   5.7499E-04  2.4423E-03  2.5091E-03   76.752
    19    1   0.0000   0.0000   0.1334  0.01668   4.5330E-04  1.8784E-03  1.9323E-03   76.432
    20    1   0.0000   0.0000   0.1501  0.01668   3.1427E-04  1.2721E-03  1.3103E-03   76.123
    21    1   0.0000   0.0000   0.1668  0.01668   1.4382E-04  5.6949E-04  5.8737E-04   75.826



                                        - - - POWER BUDGET - - -

                                           INPUT POWER   = 4.8929E-04 WATTS
                                           RADIATED POWER= 4.8929E-04 WATTS
                                           STRUCTURE LOSS= 0.0000E+00 WATTS
                                           NETWORK LOSS  = 0.0000E+00 WATTS
                                           EFFICIENCY    = 100.00 PERCENT




                                 - - - - - - FREQUENCY - - - - - -

                                    FREQUENCY= 7.5000E+02 MHZ
                                    WAVELENGTH= 3.9972E-01 METERS




                    APPROXIMATE INTEGRATION EMPLOYED FOR SEGMENTS MORE THAN   1.000 WAVELENGTHS APART



                               - - - STRUCTURE IMPEDANCE LOADING - - -

                                   THIS STRUCTURE IS NOT LOADED



                                  - - - ANTENNA ENVIRONMENT - - -

                                            FREE SPACE



                                - - - MATRIX TIMING - - -

                        FILL=    0.007 SEC.,  FACTOR=    0.000 SEC.



                                          - - - ANTENNA INPUT PARAMETERS - - -

   TAG   SEG.    VOLTAGE (VOLTS)         CURRENT (AMPS)         IMPEDANCE (OHMS)        ADMITTANCE (MHOS)      POWER
   NO.   NO.    REAL        IMAG.       REAL        IMAG.       REAL        IMAG.       REAL        IMAG.     (WATTS)
     1    11 1.00000E+00 0.00000E+00 1.92925E-03 6.88938E-03 3.76913E+01-1.34596E+02 1.92925E-03 6.88938E-03 9.64624E-04



                             - - - CURRENTS AND LOCATION - - -

                                 DISTANCES IN WAVELENGTHS


  SEG.  TAG    COORD. OF SEG. CENTER     SEG.            - - - CURRENT (AMPS) - - -
  NO.   NO.     X        Y        Z      LENGTH     REAL        IMAG.       MAG.        PHASE
     1    1   0.0000   0.0000  -0.1787  0.01787   2.7875E-04  7.3902E-04  7.8985E-04   69.334
     2    1   0.0000   0.0000  -0.1608  0.01787   6.1116E-04  1.6506E-03  1.7601E-03   69.682
     3    1   0.0000   0.0000  -0.1430  0.01787   8.8416E-04  2.4355E-03  2.5910E-03   70.047
     4    1   0.0000   0.0000  -0.1251  0.01787   1.1244E-03  3.1622E-03  3.3562E-03   70.426
     5    1   0.0000   0.0000  -0.1072  0.01787   1.3340E-03  3.8363E-03  4.0616E-03   70.826
     6    1   0.0000   0.0000  -0.0893  0.01787   1.5132E-03  4.4584E-03  4.7082E-03   71.252
     7    1   0.0000   0.0000  -0.0715  0.01787   1.6615E-03  5.0278E-03  5.2953E-03   71.713
     8    1   0.0000   0.0000  -0.0536  0.01787   1.7780E-03  5.5450E-03  5.8231E-03   72.222
     9    1   0.0000   0.0000  -0.0357  0.01787   1.8618E-03  6.0139E-03  6.2955E-03   72.799
    10    1   0.0000   0.0000  -0.0179  0.01787   1.9123E-03  6.4671E-03  6.7439E-03   73.527
    11    1   0.0000   0.0000   0.0000  0.01787   1.9292E-03  6.8894E-03  7.1544E-03   74.356
    12    1   0.0000   0.0000   0.0179  0.01787   1.9123E-03  6.4671E-03  6.7439E-03   73.527
    13    1   0.0000   0.0000   0.0357  0.01787   1.8618E-03  6.0139E-03  6.2955E-03   72.799
    14    1   0.0000   0.0000   0.0536  0.01787   1.7780E-03  5.5450E-03  5.8231E-03   72.222
    15    1   0.0000   0.0000   0.0715  0.01787   1.6615E-03  5.0278E-03  5.2953E-03   71.713
    16    1   0.0000   0.0000   0.0893  0.01787   1.5132E-03  4.4584E-03  4.7082E-03   71.252
    17    1   0.0000   0.0000   0.1072  0.01787   1.3340E-03  3.8363E-03  4.0616E-03   70.826
    18    1   0.0000   0.0000   0.1251  0.01787   1.1244E-03  3.1622E-03  3.3562E-03   70.426
    19    1   0.0000   0.0000   0.1430  0.01787   8.8416E-04  2.4355E-03  2.5910E-03   70.047
    20    1   0.0000   0.0000   0.1608  0.01787   6.1116E-04  1.6506E-03  1.7601E-03   69.682
    21    1   0.0000   0.0000   0.1787  0.01787   2.7875E-04  7.3902E-04  7.8985E-04   69.334



                                        - - - POWER BUDGET - - -

                                           INPUT POWER   = 9.6462E-04 WATTS
                                           RADIATED POWER= 9.6462E-04 WATTS
                                           STRUCTURE LOSS= 0.0000E+00 WATTS
                                           NETWORK LOSS  = 0.0000E+00 WATTS
                                           EFFICIENCY    = 100.00 PERCENT




                                 - - - - - - FREQUENCY - - - - - -

                                    FREQUENCY= 8.0000E+02 MHZ
                                    WAVELENGTH= 3.7474E-01 METERS




                    APPROXIMATE INTEGRATION EMPLOYED FOR SEGMENTS MORE THAN   1.000 WAVELENGTHS APART



                               - - - STRUCTURE IMPEDANCE LOADING - - -

                                   THIS STRUCTURE IS NOT LOADED



                                  - - - ANTENNA ENVIRONMENT - - -

                                            FREE SPACE



                                - - - MATRIX TIMING - - -

                        FILL=    0.007 SEC.,  FACTOR=    0.000 SEC.



                                          - - - ANTENNA INPUT PARAMETERS - - -

   TAG   SEG.    VOLTAGE (VOLTS)         CURRENT (AMPS)         IMPEDANCE (OHMS)        ADMITTANCE (MHOS)      POWER
   NO.   NO.    REAL        IMAG.       REAL        IMAG.       REAL        IMAG.       REAL        IMAG.     (WATTS)
     1    11 1.00000E+00 0.00000E+00 4.05965E-03 8.55196E-03 4.53001E+01-9.54281E+01 4.05965E-03 8.55196E-03 2.02983E-03



                             - - - CURRENTS AND LOCATION - - -

                                 DISTANCES IN WAVELENGTHS


  SEG.  TAG    COORD. OF SEG. CENTER     SEG.            - - - CURRENT (AMPS) - - -
  NO.   NO.     X        Y        Z      LENGTH     REAL        IMAG.       MAG.        PHASE
     1    1   0.0000   0.0000  -0.1906  0.01906   5.7601E-04  9.4143E-04  1.1037E-03   58.540
     2    1   0.0000   0.0000  -0.1715  0.01906   1.2674E-03  2.1045E-03  2.4567E-03   58.942
     3    1   0.0000   0.0000  -0.1525  0.01906   1.8394E-03  3.1062E-03  3.6100E-03   59.367
     4    1   0.0000   0.0000  -0.1334  0.01906   2.3457E-03  4.0317E-03  4.6644E-03   59.809
     5    1   0.0000   0.0000  -0.1144  0.01906   2.7895E-03  4.8861E-03  5.6263E-03   60.278
     6    1   0.0000   0.0000  -0.0953  0.01906   3.1704E-03  5.6689E-03  6.4952E-03   60.783
     7    1   0.0000   0.0000  -0.0762  0.01906   3.4866E-03  6.3772E-03  7.2681E-03   61.334
     8    1   0.0000   0.0000  -0.0572  0.01906   3.7355E-03  7.0099E-03  7.9430E-03   61.947
     9    1   0.0000   0.0000  -0.0381  0.01906   3.9150E-03  7.5694E-03  8.5219E-03   62.652
    10    1   0.0000   0.0000  -0.0191  0.01906   4.0234E-03  8.0892E-03  9.0345E-03   63.555
    11    1   0.0000   0.0000   0.0000  0.01906   4.0597E-03  8.5520E-03  9.4666E-03   64.606
    12    1   0.0000   0.0000   0.0191  0.01906   4.0234E-03  8.0892E-03  9.0345E-03   63.555
    13    1   0.0000   0.0000   0.0381  0.01906   3.9150E-03  7.5694E-03  8.5219E-03   62.652
    14    1   0.0000   0.0000   0.0572  0.01906   3.7355E-03  7.0099E-03  7.9430E-03   61.947
    15    1   0.0000   0.0000   0.0762  0.01906   3.4866E-03  6.3772E-03  7.2681E-03   61.334
    16    1   0.0000   0.0000   0.0953  0.01906   3.1704E-03  5.6689E-03  6.4952E-03   60.783
    17    1   0.0000   0.0000   0.1144  0.01906   2.7895E-03  4.8861E-03  5.6263E-03   60.278
    18    1   0.0000   0.0000   0.1334  0.01906   2.3457E-03  4.0317E-03  4.6644E-03   59.809
    19    1   0.0000   0.0000   0.1525  0.01906   1.8394E-03  3.1062E-03  3.6100E-03   59.367
    20    1   0.0000   0.0000   0.1715  0.01906   1.2674E-03  2.1045E-03  2.4567E-03   58.942
    21    1   0.0000   0.0000   0.1906  0.01906   5.7601E-04  9.4143E-04  1.1037E-03   58.540



                                        - - - POWER BUDGET - - -

                                           INPUT POWER   = 2.0298E-03 WATTS
                                           RADIATED POWER= 2.0298E-03 WATTS
                                           STRUCTURE LOSS= 0.0000E+00 WATTS
                                           NETWORK LOSS  = 0.0000E+00 WATTS
                                           EFFICIENCY    = 100.00 PERCENT




                                 - - - - - - FREQUENCY - - - - - -

                                    FREQUENCY= 8.5000E+02 MHZ
                                    WAVELENGTH= 3.5270E-01 METERS




                    APPROXIMATE INTEGRATION EMPLOYED FOR SEGMENTS MORE THAN   1.000 WAVELENGTHS APART



                               - - - STRUCTURE IMPEDANCE LOADING - - -

                                   THIS STRUCTURE IS NOT LOADED



                                  - - - ANTENNA ENVIRONMENT - - -

                                            FREE SPACE



                                - - - MATRIX TIMING - - -

                        FILL=    0.007 SEC.,  FACTOR=    0.000 SEC.



                                          - - - ANTENNA INPUT PARAMETERS - - -

   TAG   SEG.    VOLTAGE (VOLTS)         CURRENT (AMPS)         IMPEDANCE (OHMS)        ADMITTANCE (MHOS)      POWER
   NO.   NO.    REAL        IMAG.       REAL        IMAG.       REAL        IMAG.       REAL        IMAG.     (WATTS)
     1    11 1.00000E+00 0.00000E+00 8.64277E-03 9.19384E-03 5.42805E+01-5.77415E+01 8.64277E-03 9.19384E-03 4.32139E-03



                             - - - CURRENTS AND LOCATION - - -

                                 DISTANCES IN WAVELENGTHS


  SEG.  TAG    COORD. OF SEG. CENTER     SEG.            - - - CURRENT (AMPS) - - -
  NO.   NO.     X        Y        Z      LENGTH     REAL        IMAG.       MAG.        PHASE
     1    1   0.0000   0.0000  -0.2025  0.02025   1.2029E-03  9.9222E-04  1.5593E-03   39.519
     2    1   0.0000   0.0000  -0.1823  0.02025   2.6568E-03  2.2276E-03  3.4671E-03   39.978
     3    1   0.0000   0.0000  -0.1620  0.02025   3.8691E-03  3.3003E-03  5.0855E-03   40.464
     4    1   0.0000   0.0000  -0.1418  0.02025   4.9483E-03  4.2975E-03  6.5539E-03   40.974
     5    1   0.0000   0.0000  -0.1215  0.02025   5.8991E-03  5.2223E-03  7.8786E-03   41.518
     6    1   0.0000   0.0000  -0.1013  0.02025   6.7186E-03  6.0723E-03  9.0561E-03   42.107
     7    1   0.0000   0.0000  -0.0810  0.02025   7.4009E-03  6.8429E-03  1.0080E-02   42.757
     8    1   0.0000   0.0000  -0.0608  0.02025   7.9395E-03  7.5312E-03  1.0943E-02   43.488
     9    1   0.0000   0.0000  -0.0405  0.02025   8.3287E-03  8.1385E-03  1.1645E-02   44.338
    10    1   0.0000   0.0000  -0.0203  0.02025   8.5640E-03  8.6991E-03  1.2207E-02   45.448
    11    1   0.0000   0.0000   0.0000  0.02025   8.6428E-03  9.1938E-03  1.2618E-02   46.770
    12    1   0.0000   0.0000   0.0203  0.02025   8.5640E-03  8.6991E-03  1.2207E-02   45.448
    13    1   0.0000   0.0000   0.0405  0.02025   8.3287E-03  8.1385E-03  1.1645E-02   44.338
    14    1   0.0000   0.0000   0.0608  0.02025   7.9395E-03  7.5312E-03  1.0943E-02   43.488
    15    1   0.0000   0.0000   0.0810  0.02025   7.4009E-03  6.8429E-03  1.0080E-02   42.757
    16    1   0.0000   0.0000   0.1013  0.02025   6.7186E-03  6.0723E-03  9.0561E-03   42.107
    17    1   0.0000   0.0000   0.1215  0.02025   5.8991E-03  5.2223E-03  7.8786E-03   41.518
    18    1   0.0000   0.0000   0.1418  0.02025   4.9483E-03  4.2975E-03  6.5539E-03   40.974
    19    1   0.0000   0.0000   0.1620  0.02025   3.8691E-03  3.3003E-03  5.0855E-03   40.464
    20    1   0.0000   0.0000   0.1823  0.02025   2.6568E-03  2.2276E-03  3.4671E-03   39.978
    21    1   0.0000   0.0000   0.2025  0.02025   1.2029E-03  9.9222E-04  1.5593E-03   39.519



                                        - - - POWER BUDGET - - -

                                           INPUT POWER   = 4.3214E-03 WATTS
                                           RADIATED POWER= 4.3214E-03 WATTS
                                           STRUCTURE LOSS= 0.0000E+00 WATTS
                                           NETWORK LOSS  = 0.0000E+00 WATTS
                                           EFFICIENCY    = 100.00 PERCENT




                                 - - - - - - FREQUENCY - - - - - -

                                    FREQUENCY= 9.0000E+02 MHZ
                                    WAVELENGTH= 3.3310E-01 METERS




                    APPROXIMATE INTEGRATION EMPLOYED FOR SEGMENTS MORE THAN   1.000 WAVELENGTHS APART



                               - - - STRUCTURE IMPEDANCE LOADING - - -

                                   THIS STRUCTURE IS NOT LOADED



                                  - - - ANTENNA ENVIRONMENT - - -

                                            FREE SPACE



                                - - - MATRIX TIMING - - -

                        FILL=    0.008 SEC.,  FACTOR=    0.000 SEC.



                                          - - - ANTENNA INPUT PARAMETERS - - -

   TAG   SEG.    VOLTAGE (VOLTS)         CURRENT (AMPS)         IMPEDANCE (OHMS)        ADMITTANCE (MHOS)      POWER
   NO.   NO.    REAL        IMAG.       REAL        IMAG.       REAL        IMAG.       REAL        IMAG.     (WATTS)
     1    11 1.00000E+00 0.00000E+00 1.39411E-02 4.51475E-03 6.49216E+01-2.10245E+01 1.39411E-02 4.51475E-03 6.97056E-03



                             - - - CURRENTS AND LOCATION - - -

                                 DISTANCES IN WAVELENGTHS


  SEG.  TAG    COORD. OF SEG. CENTER     SEG.            - - - CURRENT (AMPS) - - -
  NO.   NO.     X        Y        Z      LENGTH     REAL        IMAG.       MAG.        PHASE
     1    1   0.0000   0.0000  -0.2144  0.02144   1.9010E-03  3.1314E-04  1.9267E-03    9.354
     2    1   0.0000   0.0000  -0.1930  0.02144   4.2161E-03  7.3364E-04  4.2795E-03    9.871
     3    1   0.0000   0.0000  -0.1715  0.02144   6.1620E-03  1.1333E-03  6.2653E-03   10.421
     4    1   0.0000   0.0000  -0.1501  0.02144   7.9050E-03  1.5368E-03  8.0530E-03   11.001
     5    1   0.0000   0.0000  -0.1287  0.02144   9.4487E-03  1.9438E-03  9.6466E-03   11.625
     6    1   0.0000   0.0000  -0.1072  0.02144   1.0785E-02  2.3526E-03  1.1039E-02   12.306
     7    1   0.0000   0.0000  -0.0858  0.02144   1.1901E-02  2.7613E-03  1.2217E-02   13.063
     8    1   0.0000   0.0000  -0.0643  0.02144   1.2785E-02  3.1698E-03  1.3172E-02   13.925
     9    1   0.0000   0.0000  -0.0429  0.02144   1.3424E-02  3.5824E-03  1.3894E-02   14.942
    10    1   0.0000   0.0000  -0.0214  0.02144   1.3811E-02  4.0372E-03  1.4389E-02   16.294
    11    1   0.0000   0.0000   0.0000  0.02144   1.3941E-02  4.5148E-03  1.4654E-02   17.944
    12    1   0.0000   0.0000   0.0214  0.02144   1.3811E-02  4.0372E-03  1.4389E-02   16.294
    13    1   0.0000   0.0000   0.0429  0.02144   1.3424E-02  3.5824E-03  1.3894E-02   14.942
    14    1   0.0000   0.0000   0.0643  0.02144   1.2785E-02  3.1698E-03  1.3172E-02   13.925
    15    1   0.0000   0.0000   0.0858  0.02144   1.1901E-02  2.7613E-03  1.2217E-02   13.063
    16    1   0.0000   0.0000   0.1072  0.02144   1.0785E-02  2.3526E-03  1.1039E-02   12.306
    17    1   0.0000   0.0000   0.1287  0.02144   9.4487E-03  1.9438E-03  9.6466E-03   11.625
    18    1   0.0000   0.0000   0.1501  0.02144   7.9050E-03  1.5368E-03  8.0530E-03   11.001
    19    1   0.0000   0.0000   0.1715  0.02144   6.1620E-03  1.1333E-03  6.2653E-03   10.421
    20    1   0.0000   0.0000   0.1930  0.02144   4.2161E-03  7.3364E-04  4.2795E-03    9.871
    21    1   0.0000   0.0000   0.2144  0.02144   1.9010E-03  3.1314E-04  1.9267E-03    9.354



                                        - - - POWER BUDGET - - -

                                           INPUT POWER   = 6.9706E-03 WATTS
                                           RADIATED POWER= 6.9706E-03 WATTS
                                           STRUCTURE LOSS= 0.0000E+00 WATTS
                                           NETWORK LOSS  = 0.0000E+00 WATTS
                                           EFFICIENCY    = 100.00 PERCENT




                                 - - - - - - FREQUENCY - - - - - -

                                    FREQUENCY= 9.5000E+02 MHZ
                                    WAVELENGTH= 3.1557E-01 METERS




                    APPROXIMATE INTEGRATION EMPLOYED FOR SEGMENTS MORE THAN   1.000 WAVELENGTHS APART



                               - - - STRUCTURE IMPEDANCE LOADING - - -

                                   THIS STRUCTURE IS NOT LOADED



                                  - - - ANTENNA ENVIRONMENT - - -

                                            FREE SPACE



                                - - - MATRIX TIMING - - -

                        FILL=    0.008 SEC.,  FACTOR=    0.000 SEC.



                                          - - - ANTENNA INPUT PARAMETERS - - -

   TAG   SEG.    VOLTAGE (VOLTS)         CURRENT (AMPS)         IMPEDANCE (OHMS)        ADMITTANCE (MHOS)      POWER
   NO.   NO.    REAL        IMAG.       REAL        IMAG.       REAL        IMAG.       REAL        IMAG.     (WATTS)
     1    11 1.00000E+00 0.00000E+00 1.24156E-02-2.42294E-03 7.75888E+01 1.51416E+01 1.24156E-02-2.42294E-03 6.20781E-03



                             - - - CURRENTS AND LOCATION - - -

                                 DISTANCES IN WAVELENGTHS


  SEG.  TAG    COORD. OF SEG. CENTER     SEG.            - - - CURRENT (AMPS) - - -
  NO.   NO.     X        Y        Z      LENGTH     REAL        IMAG.       MAG.        PHASE
     1    1   0.0000   0.0000  -0.2263  0.02263   1.6569E-03 -6.4085E-04  1.7765E-03  -21.145
     2    1   0.0000   0.0000  -0.2037  0.02263   3.6906E-03 -1.3849E-03  3.9419E-03  -20.568
     3    1   0.0000   0.0000  -0.1811  0.02263   5.4146E-03 -1.9657E-03  5.7603E-03  -19.952
     4    1   0.0000   0.0000  -0.1584  0.02263   6.9689E-03 -2.4404E-03  7.3838E-03  -19.299
     5    1   0.0000   0.0000  -0.1358  0.02263   8.3528E-03 -2.8098E-03  8.8127E-03  -18.593
     6    1   0.0000   0.0000  -0.1132  0.02263   9.5559E-03 -3.0708E-03  1.0037E-02  -17.815
     7    1   0.0000   0.0000  -0.0905  0.02263   1.0565E-02 -3.2180E-03  1.1044E-02  -16.941
     8    1   0.0000   0.0000  -0.0679  0.02263   1.1365E-02 -3.2446E-03  1.1819E-02  -15.934
     9    1   0.0000   0.0000  -0.0453  0.02263   1.1946E-02 -3.1402E-03  1.2351E-02  -14.728
    10    1   0.0000   0.0000  -0.0226  0.02263   1.2298E-02 -2.8601E-03  1.2626E-02  -13.093
    11    1   0.0000   0.0000   0.0000  0.02263   1.2416E-02 -2.4229E-03  1.2650E-02  -11.043
    12    1   0.0000   0.0000   0.0226  0.02263   1.2298E-02 -2.8601E-03  1.2626E-02  -13.093
    13    1   0.0000   0.0000   0.0453  0.02263   1.1946E-02 -3.1402E-03  1.2351E-02  -14.728
    14    1   0.0000   0.0000   0.0679  0.02263   1.1365E-02 -3.2446E-03  1.1819E-02  -15.934
    15    1   0.0000   0.0000   0.0905  0.02263   1.0565E-02 -3.2180E-03  1.1044E-02  -16.941
    16    1   0.0000   0.0000   0.1132  0.02263   9.5559E-03 -3.0708E-03  1.0037E-02  -17.815
    17    1   0.0000   0.0000   0.1358  0.02263   8.3528E-03 -2.8098E-03  8.8127E-03  -18.593
    18    1   0.0000   0.0000   0.1584  0.02263   6.9689E-03 -2.4404E-03  7.3838E-03  -19.299
    19    1   0.0000   0.0000   0.1811  0.02263   5.4146E-03 -1.9657E-03  5.7603E-03  -19.952
    20    1   0.0000   0.0000   0.2037  0.02263   3.6906E-03 -1.3849E-03  3.9419E-03  -20.568
    21    1   0.0000   0.0000   0.2263  0.02263   1.6569E-03 -6.4085E-04  1.7765E-03  -21.145



                                        - - - POWER BUDGET - - -

                                           INPUT POWER   = 6.2078E-03 WATTS
                                           RADIATED POWER= 6.2078E-03 WATTS
                                           STRUCTURE LOSS= 0.0000E+00 WATTS
                                           NETWORK LOSS  = 0.0000E+00 WATTS
                                           EFFICIENCY    = 100.00 PERCENT




                                 - - - - - - FREQUENCY - - - - - -

                                    FREQUENCY= 1.0000E+03 MHZ
                                    WAVELENGTH= 2.9979E-01 METERS




                    APPROXIMATE INTEGRATION EMPLOYED FOR SEGMENTS MORE THAN   1.000 WAVELENGTHS APART



                               - - - STRUCTURE IMPEDANCE LOADING - - -

                                   THIS STRUCTURE IS NOT LOADED



                                  - - - ANTENNA ENVIRONMENT - - -

                                            FREE SPACE



                                - - - MATRIX TIMING - - -

                        FILL=    0.008 SEC.,  FACTOR=    0.000 SEC.



                                          - - - ANTENNA INPUT PARAMETERS - - -

   TAG   SEG.    VOLTAGE (VOLTS)         CURRENT (AMPS)         IMPEDANCE (OHMS)        ADMITTANCE (MHOS)      POWER
   NO.   NO.    REAL        IMAG.       REAL        IMAG.       REAL        IMAG.       REAL        IMAG.     (WATTS)
     1    11 1.00000E+00 0.00000E+00 8.27181E-03-4.55684E-03 9.27462E+01 5.10928E+01 8.27181E-03-4.55684E-03 4.13590E-03



                             - - - CURRENTS AND LOCATION - - -

                                 DISTANCES IN WAVELENGTHS


  SEG.  TAG    COORD. OF SEG. CENTER     SEG.            - - - CURRENT (AMPS) - - -
  NO.   NO.     X        Y        Z      LENGTH     REAL        IMAG.       MAG.        PHASE
     1    1   0.0000   0.0000  -0.2383  0.02383   1.0792E-03 -9.2685E-04  1.4226E-03  -40.658
     2    1   0.0000   0.0000  -0.2144  0.02383   2.4147E-03 -2.0278E-03  3.1532E-03  -40.022
     3    1   0.0000   0.0000  -0.1906  0.02383   3.5570E-03 -2.9154E-03  4.5991E-03  -39.339
     4    1   0.0000   0.0000  -0.1668  0.02383   4.5938E-03 -3.6685E-03  5.8788E-03  -38.611
     5    1   0.0000   0.0000  -0.1430  0.02383   5.5220E-03 -4.2860E-03  6.9901E-03  -37.817
     6    1   0.0000   0.0000  -0.1191  0.02383   6.3327E-03 -4.7610E-03  7.9227E-03  -36.936
     7    1   0.0000   0.0000  -0.0953  0.02383   7.0147E-03 -5.0847E-03  8.6637E-03  -35.937
     8    1   0.0000   0.0000  -0.0715  0.02383   7.5574E-03 -5.2467E-03  9.2002E-03  -34.770
     9    1   0.0000   0.0000  -0.0477  0.02383   7.9520E-03 -5.2339E-03  9.5198E-03  -33.352
    10    1   0.0000   0.0000  -0.0238  0.02383   8.1915E-03 -4.9976E-03  9.5957E-03  -31.387
    11    1   0.0000   0.0000   0.0000  0.02383   8.2718E-03 -4.5568E-03  9.4439E-03  -28.850
    12    1   0.0000   0.0000   0.0238  0.02383   8.1915E-03 -4.9976E-03  9.5957E-03  -31.387
    13    1   0.0000   0.0000   0.0477  0.02383   7.9520E-03 -5.2339E-03  9.5198E-03  -33.352
    14    1   0.0000   0.0000   0.0715  0.02383   7.5574E-03 -5.2467E-03  9.2002E-03  -34.770
    15    1   0.0000   0.0000   0.0953  0.02383   7.0147E-03 -5.0847E-03  8.6637E-03  -35.937
    16    1   0.0000   0.0000   0.1191  0.02383   6.3327E-03 -4.7610E-03  7.9227E-03  -36.936
    17    1   0.0000   0.0000   0.1430  0.02383   5.5220E-03 -4.2860E-03  6.9901E-03  -37.817
    18    1   0.0000   0.0000   0.1668  0.02383   4.5938E-03 -3.6685E-03  5.8788E-03  -38.611
    19    1   0.0000   0.0000   0.1906  0.02383   3.5570E-03 -2.9154E-03  4.5991E-03  -39.339
    20    1   0.0000   0.0000   0.2144  0.02383   2.4147E-03 -2.0278E-03  3.1532E-03  -40.022
    21    1   0.0000   0.0000   0.2383  0.02383   1.0792E-03 -9.2685E-04  1.4226E-03  -40.658



                                        - - - POWER BUDGET - - -

                                           INPUT POWER   = 4.1359E-03 WATTS
                                           RADIATED POWER= 4.1359E-03 WATTS
                                           STRUCTURE LOSS= 0.0000E+00 WATTS
                                           NETWORK LOSS  = 0.0000E+00 WATTS
                                           EFFICIENCY    = 100.00 PERCENT




                                 - - - - - - FREQUENCY - - - - - -

                                    FREQUENCY= 1.0500E+03 MHZ
                                    WAVELENGTH= 2.8552E-01 METERS




                    APPROXIMATE INTEGRATION EMPLOYED FOR SEGMENTS MORE THAN   1.000 WAVELENGTHS APART



                               - - - STRUCTURE IMPEDANCE LOADING - - -

                                   THIS STRUCTURE IS NOT LOADED



                                  - - - ANTENNA ENVIRONMENT - - -

                                            FREE SPACE



                                - - - MATRIX TIMING - - -

                        FILL=    0.008 SEC.,  FACTOR=    0.000 SEC.



                                          - - - ANTENNA INPUT PARAMETERS - - -

   TAG   SEG.    VOLTAGE (VOLTS)         CURRENT (AMPS)         IMPEDANCE (OHMS)        ADMITTANCE (MHOS)      POWER
   NO.   NO.    REAL        IMAG.       REAL        IMAG.       REAL        IMAG.       REAL        IMAG.     (WATTS)
     1    11 1.00000E+00 0.00000E+00 5.57707E-03-4.37565E-03 1.10986E+02 8.70776E+01 5.57707E-03-4.37565E-03 2.78854E-03



                             - - - CURRENTS AND LOCATION - - -

                                 DISTANCES IN WAVELENGTHS


  SEG.  TAG    COORD. OF SEG. CENTER     SEG.            - - - CURRENT (AMPS) - - -
  NO.   NO.     X        Y        Z      LENGTH     REAL        IMAG.       MAG.        PHASE
     1    1   0.0000   0.0000  -0.2502  0.02502   7.1049E-04 -9.0453E-04  1.1502E-03  -51.851
     2    1   0.0000   0.0000  -0.2252  0.02502   1.5975E-03 -1.9837E-03  2.5469E-03  -51.155
     3    1   0.0000   0.0000  -0.2001  0.02502   2.3631E-03 -2.8570E-03  3.7077E-03  -50.405
     4    1   0.0000   0.0000  -0.1751  0.02502   3.0629E-03 -3.5989E-03  4.7259E-03  -49.601
     5    1   0.0000   0.0000  -0.1501  0.02502   3.6930E-03 -4.2063E-03  5.5974E-03  -48.717
     6    1   0.0000   0.0000  -0.1251  0.02502   4.2459E-03 -4.6708E-03  6.3122E-03  -47.729
     7    1   0.0000   0.0000  -0.1001  0.02502   4.7127E-03 -4.9826E-03  6.8583E-03  -46.595
     8    1   0.0000   0.0000  -0.0751  0.02502   5.0853E-03 -5.1305E-03  7.2238E-03  -45.254
     9    1   0.0000   0.0000  -0.0500  0.02502   5.3567E-03 -5.1006E-03  7.3966E-03  -43.597
    10    1   0.0000   0.0000  -0.0250  0.02502   5.5217E-03 -4.8421E-03  7.3441E-03  -41.248
    11    1   0.0000   0.0000   0.0000  0.02502   5.5771E-03 -4.3757E-03  7.0887E-03  -38.117
    12    1   0.0000   0.0000   0.0250  0.02502   5.5217E-03 -4.8421E-03  7.3441E-03  -41.248
    13    1   0.0000   0.0000   0.0500  0.02502   5.3567E-03 -5.1006E-03  7.3966E-03  -43.597
    14    1   0.0000   0.0000   0.0751  0.02502   5.0853E-03 -5.1305E-03  7.2238E-03  -45.254
    15    1   0.0000   0.0000   0.1001  0.02502   4.7127E-03 -4.9826E-03  6.8583E-03  -46.595
    16    1   0.0000   0.0000   0.1251  0.02502   4.2459E-03 -4.6708E-03  6.3122E-03  -47.729
    17    1   0.0000   0.0000   0.1501  0.02502   3.6930E-03 -4.2063E-03  5.5974E-03  -48.717
    18    1   0.0000   0.0000   0.1751  0.02502   3.0629E-03 -3.5989E-03  4.7259E-03  -49.601
    19    1   0.0000   0.0000   0.2001  0.02502   2.3631E-03 -2.8570E-03  3.7077E-03  -50.405
    20    1   0.0000   0.0000   0.2252  0.02502   1.5975E-03 -1.9837E-03  2.5469E-03  -51.155
    21    1   0.0000   0.0000   0.2502  0.02502   7.1049E-04 -9.0453E-04  1.1502E-03  -51.851



                                        - - - POWER BUDGET - - -

                                           INPUT POWER   = 2.7885E-03 WATTS
                                           RADIATED POWER= 2.7885E-03 WATTS
                                           STRUCTURE LOSS= 0.0000E+00 WATTS
                                           NETWORK LOSS  = 0.0000E+00 WATTS
                                           EFFICIENCY    = 100.00 PERCENT




                                 - - - - - - FREQUENCY - - - - - -

                                    FREQUENCY= 1.1000E+03 MHZ
                                    WAVELENGTH= 2.7254E-01 METERS




                    APPROXIMATE INTEGRATION EMPLOYED FOR SEGMENTS MORE THAN   1.000 WAVELENGTHS APART



                               - - - STRUCTURE IMPEDANCE LOADING - - -

                                   THIS STRUCTURE IS NOT LOADED



                                  - - - ANTENNA ENVIRONMENT - - -

                                            FREE SPACE



                                - - - MATRIX TIMING - - -

                        FILL=    0.008 SEC.,  FACTOR=    0.000 SEC.



                                          - - - ANTENNA INPUT PARAMETERS - - -

   TAG   SEG.    VOLTAGE (VOLTS)         CURRENT (AMPS)         IMPEDANCE (OHMS)        ADMITTANCE (MHOS)      POWER
   NO.   NO.    REAL        IMAG.       REAL        IMAG.       REAL        IMAG.       REAL        IMAG.     (WATTS)
     1    11 1.00000E+00 0.00000E+00 4.04537E-03-3.74644E-03 1.33068E+02 1.23235E+02 4.04537E-03-3.74644E-03 2.02269E-03



                             - - - CURRENTS AND LOCATION - - -

                                 DISTANCES IN WAVELENGTHS


  SEG.  TAG    COORD. OF SEG. CENTER     SEG.            - - - CURRENT (AMPS) - - -
  NO.   NO.     X        Y        Z      LENGTH     REAL        IMAG.       MAG.        PHASE
     1    1   0.0000   0.0000  -0.2621  0.02621   5.0264E-04 -8.2727E-04  9.6800E-04  -58.717
     2    1   0.0000   0.0000  -0.2359  0.02621   1.1359E-03 -1.8152E-03  2.1413E-03  -57.963
     3    1   0.0000   0.0000  -0.2097  0.02621   1.6878E-03 -2.6135E-03  3.1112E-03  -57.145
     4    1   0.0000   0.0000  -0.1835  0.02621   2.1959E-03 -3.2881E-03  3.9540E-03  -56.263
     5    1   0.0000   0.0000  -0.1573  0.02621   2.6562E-03 -3.8343E-03  4.6645E-03  -55.288
     6    1   0.0000   0.0000  -0.1310  0.02621   3.0619E-03 -4.2433E-03  5.2327E-03  -54.187
     7    1   0.0000   0.0000  -0.1048  0.02621   3.4058E-03 -4.5048E-03  5.6473E-03  -52.909
     8    1   0.0000   0.0000  -0.0786  0.02621   3.6810E-03 -4.6076E-03  5.8975E-03  -51.379
     9    1   0.0000   0.0000  -0.0524  0.02621   3.8820E-03 -4.5378E-03  5.9718E-03  -49.454
    10    1   0.0000   0.0000  -0.0262  0.02621   4.0043E-03 -4.2433E-03  5.8344E-03  -46.660
    11    1   0.0000   0.0000   0.0000  0.02621   4.0454E-03 -3.7464E-03  5.5137E-03  -42.803
    12    1   0.0000   0.0000   0.0262  0.02621   4.0043E-03 -4.2433E-03  5.8344E-03  -46.660
    13    1   0.0000   0.0000   0.0524  0.02621   3.8820E-03 -4.5378E-03  5.9718E-03  -49.454
    14    1   0.0000   0.0000   0.0786  0.02621   3.6810E-03 -4.6076E-03  5.8975E-03  -51.379
    15    1   0.0000   0.0000   0.1048  0.02621   3.4058E-03 -4.5048E-03  5.6473E-03  -52.909
    16    1   0.0000   0.0000   0.1310  0.02621   3.0619E-03 -4.2433E-03  5.2327E-03  -54.187
    17    1   0.0000   0.0000   0.1573  0.02621   2.6562E-03 -3.8343E-03  4.6645E-03  -55.288
    18    1   0.0000   0.0000   0.1835  0.02621   2.1959E-03 -3.2881E-03  3.9540E-03  -56.263
    19    1   0.0000   0.0000   0.2097  0.02621   1.6878E-03 -2.6135E-03  3.1112E-03  -57.145
    20    1   0.0000   0.0000   0.2359  0.02621   1.1359E-03 -1.8152E-03  2.1413E-03  -57.963
    21    1   0.0000   0.0000   0.2621  0.02621   5.0264E-04 -8.2727E-04  9.6800E-04  -58.717



                                        - - - POWER BUDGET - - -

                                           INPUT POWER   = 2.0227E-03 WATTS
                                           RADIATED POWER= 2.0227E-03 WATTS
                                           STRUCTURE LOSS= 0.0000E+00 WATTS
                                           NETWORK LOSS  = 0.0000E+00 WATTS
                                           EFFICIENCY    = 100.00 PERCENT




                                 - - - - - - FREQUENCY - - - - - -

                                    FREQUENCY= 1.1500E+03 MHZ
                                    WAVELENGTH= 2.6069E-01 METERS




                    APPROXIMATE INTEGRATION EMPLOYED FOR SEGMENTS MORE THAN   1.000 WAVELENGTHS APART



                               - - - STRUCTURE IMPEDANCE LOADING - - -

                                   THIS STRUCTURE IS NOT LOADED



                                  - - - ANTENNA ENVIRONMENT - - -

                                            FREE SPACE



                                - - - MATRIX TIMING - - -

                        FILL=    0.008 SEC.,  FACTOR=    0.000 SEC.



                                          - - - ANTENNA INPUT PARAMETERS - - -

   TAG   SEG.    VOLTAGE (VOLTS)         CURRENT (AMPS)         IMPEDANCE (OHMS)        ADMITTANCE (MHOS)      POWER
   NO.   NO.    REAL        IMAG.       REAL        IMAG.       REAL        IMAG.       REAL        IMAG.     (WATTS)
     1    11 1.00000E+00 0.00000E+00 3.13392E-03-3.12576E-03 1.59960E+02 1.59544E+02 3.13392E-03-3.12576E-03 1.56696E-03



                             - - - CURRENTS AND LOCATION - - -

                                 DISTANCES IN WAVELENGTHS


  SEG.  TAG    COORD. OF SEG. CENTER     SEG.            - - - CURRENT (AMPS) - - -
  NO.   NO.     X        Y        Z      LENGTH     REAL        IMAG.       MAG.        PHASE
     1    1   0.0000   0.0000  -0.2740  0.02740   3.7933E-04 -7.5476E-04  8.4472E-04  -63.316
     2    1   0.0000   0.0000  -0.2466  0.02740   8.6185E-04 -1.6559E-03  1.8668E-03  -62.504
     3    1   0.0000   0.0000  -0.2192  0.02740   1.2866E-03 -2.3816E-03  2.7069E-03  -61.620
     4    1   0.0000   0.0000  -0.1918  0.02740   1.6806E-03 -2.9900E-03  3.4299E-03  -60.660
     5    1   0.0000   0.0000  -0.1644  0.02740   2.0396E-03 -3.4753E-03  4.0296E-03  -59.591
     6    1   0.0000   0.0000  -0.1370  0.02740   2.3577E-03 -3.8282E-03  4.4960E-03  -58.373
     7    1   0.0000   0.0000  -0.1096  0.02740   2.6283E-03 -4.0386E-03  4.8185E-03  -56.944
     8    1   0.0000   0.0000  -0.0822  0.02740   2.8455E-03 -4.0953E-03  4.9868E-03  -55.207
     9    1   0.0000   0.0000  -0.0548  0.02740   3.0045E-03 -3.9847E-03  4.9905E-03  -52.984
    10    1   0.0000   0.0000  -0.0274  0.02740   3.1014E-03 -3.6533E-03  4.7922E-03  -49.671
    11    1   0.0000   0.0000   0.0000  0.02740   3.1339E-03 -3.1258E-03  4.4263E-03  -44.925
    12    1   0.0000   0.0000   0.0274  0.02740   3.1014E-03 -3.6533E-03  4.7922E-03  -49.671
    13    1   0.0000   0.0000   0.0548  0.02740   3.0045E-03 -3.9847E-03  4.9905E-03  -52.984
    14    1   0.0000   0.0000   0.0822  0.02740   2.8455E-03 -4.0953E-03  4.9868E-03  -55.207
    15    1   0.0000   0.0000   0.1096  0.02740   2.6283E-03 -4.0386E-03  4.8185E-03  -56.944
    16    1   0.0000   0.0000   0.1370  0.02740   2.3577E-03 -3.8282E-03  4.4960E-03  -58.373
    17    1   0.0000   0.0000   0.1644  0.02740   2.0396E-03 -3.4753E-03  4.0296E-03  -59.591
    18    1   0.0000   0.0000   0.1918  0.02740   1.6806E-03 -2.9900E-03  3.4299E-03  -60.660
    19    1   0.0000   0.0000   0.2192  0.02740   1.2866E-03 -2.3816E-03  2.7069E-03  -61.620
    20    1   0.0000   0.0000   0.2466  0.02740   8.6185E-04 -1.6559E-03  1.8668E-03  -62.504
    21    1   0.0000   0.0000   0.2740  0.02740   3.7933E-04 -7.5476E-04  8.4472E-04  -63.316



                                        - - - POWER BUDGET - - -

                                           INPUT POWER   = 1.5670E-03 WATTS
                                           RADIATED POWER= 1.5670E-03 WATTS
                                           STRUCTURE LOSS= 0.0000E+00 WATTS
                                           NETWORK LOSS  = 0.0000E+00 WATTS
                                           EFFICIENCY    = 100.00 PERCENT




                                 - - - - - - FREQUENCY - - - - - -

                                    FREQUENCY= 1.2000E+03 MHZ
                                    WAVELENGTH= 2.4983E-01 METERS




                    APPROXIMATE INTEGRATION EMPLOYED FOR SEGMENTS MORE THAN   1.000 WAVELENGTHS APART



                               - - - STRUCTURE IMPEDANCE LOADING - - -

                                   THIS STRUCTURE IS NOT LOADED



                                  - - - ANTENNA ENVIRONMENT - - -

                                            FREE SPACE



                                - - - MATRIX TIMING - - -

                        FILL=    0.008 SEC.,  FACTOR=    0.000 SEC.



                                          - - - ANTENNA INPUT PARAMETERS - - -

   TAG   SEG.    VOLTAGE (VOLTS)         CURRENT (AMPS)         IMPEDANCE (OHMS)        ADMITTANCE (MHOS)      POWER
   NO.   NO.    REAL        IMAG.       REAL        IMAG.       REAL        IMAG.       REAL        IMAG.     (WATTS)
     1    11 1.00000E+00 0.00000E+00 2.55417E-03-2.59176E-03 1.92898E+02 1.95737E+02 2.55417E-03-2.59176E-03 1.27709E-03



                             - - - CURRENTS AND LOCATION - - -

                                 DISTANCES IN WAVELENGTHS


  SEG.  TAG    COORD. OF SEG. CENTER     SEG.            - - - CURRENT (AMPS) - - -
  NO.   NO.     X        Y        Z      LENGTH     REAL        IMAG.       MAG.        PHASE
     1    1   0.0000   0.0000  -0.2859  0.02859   3.0079E-04 -6.9630E-04  7.5849E-04  -66.636
     2    1   0.0000   0.0000  -0.2573  0.02859   6.8729E-04 -1.5270E-03  1.6745E-03  -65.768
     3    1   0.0000   0.0000  -0.2287  0.02859   1.0311E-03 -2.1930E-03  2.4233E-03  -64.818
     4    1   0.0000   0.0000  -0.2001  0.02859   1.3524E-03 -2.7462E-03  3.0612E-03  -63.781
     5    1   0.0000   0.0000  -0.1715  0.02859   1.6471E-03 -3.1799E-03  3.5811E-03  -62.617
     6    1   0.0000   0.0000  -0.1430  0.02859   1.9094E-03 -3.4844E-03  3.9732E-03  -61.278
     7    1   0.0000   0.0000  -0.1144  0.02859   2.1335E-03 -3.6494E-03  4.2273E-03  -59.689
     8    1   0.0000   0.0000  -0.0858  0.02859   2.3139E-03 -3.6645E-03  4.3339E-03  -57.730
     9    1   0.0000   0.0000  -0.0572  0.02859   2.4462E-03 -3.5161E-03  4.2833E-03  -55.172
    10    1   0.0000   0.0000  -0.0286  0.02859   2.5270E-03 -3.1495E-03  4.0379E-03  -51.258
    11    1   0.0000   0.0000   0.0000  0.02859   2.5542E-03 -2.5918E-03  3.6388E-03  -45.419
    12    1   0.0000   0.0000   0.0286  0.02859   2.5270E-03 -3.1495E-03  4.0379E-03  -51.258
    13    1   0.0000   0.0000   0.0572  0.02859   2.4462E-03 -3.5161E-03  4.2833E-03  -55.172
    14    1   0.0000   0.0000   0.0858  0.02859   2.3139E-03 -3.6645E-03  4.3339E-03  -57.730
    15    1   0.0000   0.0000   0.1144  0.02859   2.1335E-03 -3.6494E-03  4.2273E-03  -59.689
    16    1   0.0000   0.0000   0.1430  0.02859   1.9094E-03 -3.4844E-03  3.9732E-03  -61.278
    17    1   0.0000   0.0000   0.1715  0.02859   1.6471E-03 -3.1799E-03  3.5811E-03  -62.617
    18    1   0.0000   0.0000   0.2001  0.02859   1.3524E-03 -2.7462E-03  3.0612E-03  -63.781
    19    1   0.0000   0.0000   0.2287  0.02859   1.0311E-03 -2.1930E-03  2.4233E-03  -64.818
    20    1   0.0000   0.0000   0.2573  0.02859   6.8729E-04 -1.5270E-03  1.6745E-03  -65.768
    21    1   0.0000   0.0000   0.2859  0.02859   3.0079E-04 -6.9630E-04  7.5849E-04  -66.636



                                        - - - POWER BUDGET - - -

                                           INPUT POWER   = 1.2771E-03 WATTS
                                           RADIATED POWER= 1.2771E-03 WATTS
                                           STRUCTURE LOSS= 0.0000E+00 WATTS
                                           NETWORK LOSS  = 0.0000E+00 WATTS
                                           EFFICIENCY    = 100.00 PERCENT




                                 - - - - - - FREQUENCY - - - - - -

                                    FREQUENCY= 1.2500E+03 MHZ
                                    WAVELENGTH= 2.3983E-01 METERS




                    APPROXIMATE INTEGRATION EMPLOYED FOR SEGMENTS MORE THAN   1.000 WAVELENGTHS APART



                               - - - STRUCTURE IMPEDANCE LOADING - - -

                                   THIS STRUCTURE IS NOT LOADED



                                  - - - ANTENNA ENVIRONMENT - - -

                                            FREE SPACE



                                - - - MATRIX TIMING - - -

                        FILL=    0.008 SEC.,  FACTOR=    0.000 SEC.



                                          - - - ANTENNA INPUT PARAMETERS - - -

   TAG   SEG.    VOLTAGE (VOLTS)         CURRENT (AMPS)         IMPEDANCE (OHMS)        ADMITTANCE (MHOS)      POWER
   NO.   NO.    REAL        IMAG.       REAL        IMAG.       REAL        IMAG.       REAL        IMAG.     (WATTS)
     1    11 1.00000E+00 0.00000E+00 2.16305E-03-2.14191E-03 2.33425E+02 2.31144E+02 2.16305E-03-2.14191E-03 1.08153E-03



                             - - - CURRENTS AND LOCATION - - -

                                 DISTANCES IN WAVELENGTHS


  SEG.  TAG    COORD. OF SEG. CENTER     SEG.            - - - CURRENT (AMPS) - - -
  NO.   NO.     X        Y        Z      LENGTH     REAL        IMAG.       MAG.        PHASE
     1    1   0.0000   0.0000  -0.2978  0.02978   2.4751E-04 -6.5091E-04  6.9638E-04  -69.181
     2    1   0.0000   0.0000  -0.2680  0.02978   5.6893E-04 -1.4266E-03  1.5359E-03  -68.258
     3    1   0.0000   0.0000  -0.2383  0.02978   8.5795E-04 -2.0455E-03  2.2181E-03  -67.245
     4    1   0.0000   0.0000  -0.2085  0.02978   1.1303E-03 -2.5543E-03  2.7932E-03  -66.131
     5    1   0.0000   0.0000  -0.1787  0.02978   1.3815E-03 -2.9454E-03  3.2533E-03  -64.871
     6    1   0.0000   0.0000  -0.1489  0.02978   1.6064E-03 -3.2090E-03  3.5886E-03  -63.408
     7    1   0.0000   0.0000  -0.1191  0.02978   1.7992E-03 -3.3348E-03  3.7892E-03  -61.651
     8    1   0.0000   0.0000  -0.0893  0.02978   1.9550E-03 -3.3126E-03  3.8464E-03  -59.451
     9    1   0.0000   0.0000  -0.0596  0.02978   2.0695E-03 -3.1293E-03  3.7517E-03  -56.522
    10    1   0.0000   0.0000  -0.0298  0.02978   2.1395E-03 -2.7293E-03  3.4679E-03  -51.907
    11    1   0.0000   0.0000   0.0000  0.02978   2.1631E-03 -2.1419E-03  3.0441E-03  -44.719
    12    1   0.0000   0.0000   0.0298  0.02978   2.1395E-03 -2.7293E-03  3.4679E-03  -51.907
    13    1   0.0000   0.0000   0.0596  0.02978   2.0695E-03 -3.1293E-03  3.7517E-03  -56.522
    14    1   0.0000   0.0000   0.0893  0.02978   1.9550E-03 -3.3126E-03  3.8464E-03  -59.451
    15    1   0.0000   0.0000   0.1191  0.02978   1.7992E-03 -3.3348E-03  3.7892E-03  -61.651
    16    1   0.0000   0.0000   0.1489  0.02978   1.6064E-03 -3.2090E-03  3.5886E-03  -63.408
    17    1   0.0000   0.0000   0.1787  0.02978   1.3815E-03 -2.9454E-03  3.2533E-03  -64.871
    18    1   0.0000   0.0000   0.2085  0.02978   1.1303E-03 -2.5543E-03  2.7932E-03  -66.131
    19    1   0.0000   0.0000   0.2383  0.02978   8.5795E-04 -2.0455E-03  2.2181E-03  -67.245
    20    1   0.0000   0.0000   0.2680  0.02978   5.6893E-04 -1.4266E-03  1.5359E-03  -68.258
    21    1   0.0000   0.0000   0.2978  0.02978   2.4751E-04 -6.5091E-04  6.9638E-04  -69.181



                                        - - - POWER BUDGET - - -

                                           INPUT POWER   = 1.0815E-03 WATTS
                                           RADIATED POWER= 1.0815E-03 WATTS
                                           STRUCTURE LOSS= 0.0000E+00 WATTS
                                           NETWORK LOSS  = 0.0000E+00 WATTS
                                           EFFICIENCY    = 100.00 PERCENT




                                 - - - - - - FREQUENCY - - - - - -

                                    FREQUENCY= 1.3000E+03 MHZ
                                    WAVELENGTH= 2.3061E-01 METERS




                    APPROXIMATE INTEGRATION EMPLOYED FOR SEGMENTS MORE THAN   1.000 WAVELENGTHS APART



                               - - - STRUCTURE IMPEDANCE LOADING - - -

                                   THIS STRUCTURE IS NOT LOADED



                                  - - - ANTENNA ENVIRONMENT - - -

                                            FREE SPACE



                                - - - MATRIX TIMING - - -

                        FILL=    0.008 SEC.,  FACTOR=    0.000 SEC.



                                          - - - ANTENNA INPUT PARAMETERS - - -

   TAG   SEG.    VOLTAGE (VOLTS)         CURRENT (AMPS)         IMPEDANCE (OHMS)        ADMITTANCE (MHOS)      POWER
   NO.   NO.    REAL        IMAG.       REAL        IMAG.       REAL        IMAG.       REAL        IMAG.     (WATTS)
     1    11 1.00000E+00 0.00000E+00 1.88624E-03-1.76002E-03 2.83407E+02 2.64442E+02 1.88624E-03-1.76002E-03 9.43122E-04



                             - - - CURRENTS AND LOCATION - - -

                                 DISTANCES IN WAVELENGTHS


  SEG.  TAG    COORD. OF SEG. CENTER     SEG.            - - - CURRENT (AMPS) - - -
  NO.   NO.     X        Y        Z      LENGTH     REAL        IMAG.       MAG.        PHASE
     1    1   0.0000   0.0000  -0.3097  0.03097   2.0941E-04 -6.1611E-04  6.5072E-04  -71.228
     2    1   0.0000   0.0000  -0.2788  0.03097   4.8440E-04 -1.3494E-03  1.4337E-03  -70.253
     3    1   0.0000   0.0000  -0.2478  0.03097   7.3449E-04 -1.9313E-03  2.0663E-03  -69.178
     4    1   0.0000   0.0000  -0.2168  0.03097   9.7206E-04 -2.4045E-03  2.5936E-03  -67.988
     5    1   0.0000   0.0000  -0.1858  0.03097   1.1927E-03 -2.7606E-03  3.0072E-03  -66.633
     6    1   0.0000   0.0000  -0.1549  0.03097   1.3912E-03 -2.9893E-03  3.2972E-03  -65.043
     7    1   0.0000   0.0000  -0.1239  0.03097   1.5622E-03 -3.0806E-03  3.4540E-03  -63.110
     8    1   0.0000   0.0000  -0.0929  0.03097   1.7007E-03 -3.0246E-03  3.4700E-03  -60.651
     9    1   0.0000   0.0000  -0.0619  0.03097   1.8027E-03 -2.8089E-03  3.3376E-03  -57.308
    10    1   0.0000   0.0000  -0.0310  0.03097   1.8652E-03 -2.3766E-03  3.0212E-03  -51.875
    11    1   0.0000   0.0000   0.0000  0.03097   1.8862E-03 -1.7600E-03  2.5798E-03  -43.017
    12    1   0.0000   0.0000   0.0310  0.03097   1.8652E-03 -2.3766E-03  3.0212E-03  -51.875
    13    1   0.0000   0.0000   0.0619  0.03097   1.8027E-03 -2.8089E-03  3.3376E-03  -57.308
    14    1   0.0000   0.0000   0.0929  0.03097   1.7007E-03 -3.0246E-03  3.4700E-03  -60.651
    15    1   0.0000   0.0000   0.1239  0.03097   1.5622E-03 -3.0806E-03  3.4540E-03  -63.110
    16    1   0.0000   0.0000   0.1549  0.03097   1.3912E-03 -2.9893E-03  3.2972E-03  -65.043
    17    1   0.0000   0.0000   0.1858  0.03097   1.1927E-03 -2.7606E-03  3.0072E-03  -66.633
    18    1   0.0000   0.0000   0.2168  0.03097   9.7206E-04 -2.4045E-03  2.5936E-03  -67.988
    19    1   0.0000   0.0000   0.2478  0.03097   7.3449E-04 -1.9313E-03  2.0663E-03  -69.178
    20    1   0.0000   0.0000   0.2788  0.03097   4.8440E-04 -1.3494E-03  1.4337E-03  -70.253
    21    1   0.0000   0.0000   0.3097  0.03097   2.0941E-04 -6.1611E-04  6.5072E-04  -71.228



                                        - - - POWER BUDGET - - -

                                           INPUT POWER   = 9.4312E-04 WATTS
                                           RADIATED POWER= 9.4312E-04 WATTS
                                           STRUCTURE LOSS= 0.0000E+00 WATTS
                                           NETWORK LOSS  = 0.0000E+00 WATTS
                                           EFFICIENCY    = 100.00 PERCENT




                                 - - - - - - FREQUENCY - - - - - -

                                    FREQUENCY= 1.3500E+03 MHZ
                                    WAVELENGTH= 2.2207E-01 METERS




                    APPROXIMATE INTEGRATION EMPLOYED FOR SEGMENTS MORE THAN   1.000 WAVELENGTHS APART



                               - - - STRUCTURE IMPEDANCE LOADING - - -

                                   THIS STRUCTURE IS NOT LOADED



                                  - - - ANTENNA ENVIRONMENT - - -

                                            FREE SPACE



                                - - - MATRIX TIMING - - -

                        FILL=    0.008 SEC.,  FACTOR=    0.000 SEC.



                                          - - - ANTENNA INPUT PARAMETERS - - -

   TAG   SEG.    VOLTAGE (VOLTS)         CURRENT (AMPS)         IMPEDANCE (OHMS)        ADMITTANCE (MHOS)      POWER
   NO.   NO.    REAL        IMAG.       REAL        IMAG.       REAL        IMAG.       REAL        IMAG.     (WATTS)
     1    11 1.00000E+00 0.00000E+00 1.68269E-03-1.43066E-03 3.44939E+02 2.93274E+02 1.68269E-03-1.43066E-03 8.41345E-04



                             - - - CURRENTS AND LOCATION - - -

                                 DISTANCES IN WAVELENGTHS


  SEG.  TAG    COORD. OF SEG. CENTER     SEG.            - - - CURRENT (AMPS) - - -
  NO.   NO.     X        Y        Z      LENGTH     REAL        IMAG.       MAG.        PHASE
     1    1   0.0000   0.0000  -0.3217  0.03217   1.8096E-04 -5.8967E-04  6.1681E-04  -72.940
     2    1   0.0000   0.0000  -0.2895  0.03217   4.2141E-04 -1.2906E-03  1.3576E-03  -71.917
     3    1   0.0000   0.0000  -0.2573  0.03217   6.4268E-04 -1.8436E-03  1.9524E-03  -70.781
     4    1   0.0000   0.0000  -0.2252  0.03217   8.5466E-04 -2.2881E-03  2.4425E-03  -69.518
     5    1   0.0000   0.0000  -0.1930  0.03217   1.0529E-03 -2.6148E-03  2.8188E-03  -68.067
     6    1   0.0000   0.0000  -0.1608  0.03217   1.2322E-03 -2.8133E-03  3.0713E-03  -66.347
     7    1   0.0000   0.0000  -0.1287  0.03217   1.3873E-03 -2.8737E-03  3.1910E-03  -64.231
     8    1   0.0000   0.0000  -0.0965  0.03217   1.5133E-03 -2.7865E-03  3.1709E-03  -61.494
     9    1   0.0000   0.0000  -0.0643  0.03217   1.6064E-03 -2.5399E-03  3.0053E-03  -57.689
    10    1   0.0000   0.0000  -0.0322  0.03217   1.6635E-03 -2.0763E-03  2.6605E-03  -51.299
    11    1   0.0000   0.0000   0.0000  0.03217   1.6827E-03 -1.4307E-03  2.2087E-03  -40.372
    12    1   0.0000   0.0000   0.0322  0.03217   1.6635E-03 -2.0763E-03  2.6605E-03  -51.299
    13    1   0.0000   0.0000   0.0643  0.03217   1.6064E-03 -2.5399E-03  3.0053E-03  -57.689
    14    1   0.0000   0.0000   0.0965  0.03217   1.5133E-03 -2.7865E-03  3.1709E-03  -61.494
    15    1   0.0000   0.0000   0.1287  0.03217   1.3873E-03 -2.8737E-03  3.1910E-03  -64.231
    16    1   0.0000   0.0000   0.1608  0.03217   1.2322E-03 -2.8133E-03  3.0713E-03  -66.347
    17    1   0.0000   0.0000   0.1930  0.03217   1.0529E-03 -2.6148E-03  2.8188E-03  -68.067
    18    1   0.0000   0.0000   0.2252  0.03217   8.5466E-04 -2.2881E-03  2.4425E-03  -69.518
    19    1   0.0000   0.0000   0.2573  0.03217   6.4268E-04 -1.8436E-03  1.9524E-03  -70.781
    20    1   0.0000   0.0000   0.2895  0.03217   4.2141E-04 -1.2906E-03  1.3576E-03  -71.917
    21    1   0.0000   0.0000   0.3217  0.03217   1.8096E-04 -5.8967E-04  6.1681E-04  -72.940



                                        - - - POWER BUDGET - - -

                                           INPUT POWER   = 8.4134E-04 WATTS
                                           RADIATED POWER= 8.4134E-04 WATTS
                                           STRUCTURE LOSS= 0.0000E+00 WATTS
                                           NETWORK LOSS  = 0.0000E+00 WATTS
                                           EFFICIENCY    = 100.00 PERCENT




                                 - - - - - - FREQUENCY - - - - - -

                                    FREQUENCY= 1.4000E+03 MHZ
                                    WAVELENGTH= 2.1414E-01 METERS




                    APPROXIMATE INTEGRATION EMPLOYED FOR SEGMENTS MORE THAN   1.000 WAVELENGTHS APART



                               - - - STRUCTURE IMPEDANCE LOADING - - -

                                   THIS STRUCTURE IS NOT LOADED



                                  - - - ANTENNA ENVIRONMENT - - -

                                            FREE SPACE



                                - - - MATRIX TIMING - - -

                        FILL=    0.008 SEC.,  FACTOR=    0.000 SEC.



                                          - - - ANTENNA INPUT PARAMETERS - - -

   TAG   SEG.    VOLTAGE (VOLTS)         CURRENT (AMPS)         IMPEDANCE (OHMS)        ADMITTANCE (MHOS)      POWER
   NO.   NO.    REAL        IMAG.       REAL        IMAG.       REAL        IMAG.       REAL        IMAG.     (WATTS)
     1    11 1.00000E+00 0.00000E+00 1.52834E-03-1.14152E-03 4.20003E+02 3.13700E+02 1.52834E-03-1.14152E-03 7.64169E-04



                             - - - CURRENTS AND LOCATION - - -

                                 DISTANCES IN WAVELENGTHS


  SEG.  TAG    COORD. OF SEG. CENTER     SEG.            - - - CURRENT (AMPS) - - -
  NO.   NO.     X        Y        Z      LENGTH     REAL        IMAG.       MAG.        PHASE
     1    1   0.0000   0.0000  -0.3336  0.03336   1.5891E-04 -5.6989E-04  5.9163E-04  -74.419
     2    1   0.0000   0.0000  -0.3002  0.03336   3.7275E-04 -1.2463E-03  1.3009E-03  -73.349
     3    1   0.0000   0.0000  -0.2669  0.03336   5.7196E-04 -1.7768E-03  1.8666E-03  -72.157
     4    1   0.0000   0.0000  -0.2335  0.03336   7.6451E-04 -2.1980E-03  2.3272E-03  -70.822
     5    1   0.0000   0.0000  -0.2001  0.03336   9.4585E-04 -2.4999E-03  2.6728E-03  -69.275
     6    1   0.0000   0.0000  -0.1668  0.03336   1.1108E-03 -2.6717E-03  2.8934E-03  -67.425
     7    1   0.0000   0.0000  -0.1334  0.03336   1.2540E-03 -2.7036E-03  2.9803E-03  -65.117
     8    1   0.0000   0.0000  -0.1001  0.03336   1.3708E-03 -2.5870E-03  2.9278E-03  -62.081
     9    1   0.0000   0.0000  -0.0667  0.03336   1.4573E-03 -2.3106E-03  2.7318E-03  -57.760
    10    1   0.0000   0.0000  -0.0334  0.03336   1.5104E-03 -1.8160E-03  2.3621E-03  -50.249
    11    1   0.0000   0.0000   0.0000  0.03336   1.5283E-03 -1.1415E-03  1.9076E-03  -36.756
    12    1   0.0000   0.0000   0.0334  0.03336   1.5104E-03 -1.8160E-03  2.3621E-03  -50.249
    13    1   0.0000   0.0000   0.0667  0.03336   1.4573E-03 -2.3106E-03  2.7318E-03  -57.760
    14    1   0.0000   0.0000   0.1001  0.03336   1.3708E-03 -2.5870E-03  2.9278E-03  -62.081
    15    1   0.0000   0.0000   0.1334  0.03336   1.2540E-03 -2.7036E-03  2.9803E-03  -65.117
    16    1   0.0000   0.0000   0.1668  0.03336   1.1108E-03 -2.6717E-03  2.8934E-03  -67.425
    17    1   0.0000   0.0000   0.2001  0.03336   9.4585E-04 -2.4999E-03  2.6728E-03  -69.275
    18    1   0.0000   0.0000   0.2335  0.03336   7.6451E-04 -2.1980E-03  2.3272E-03  -70.822
    19    1   0.0000   0.0000   0.2669  0.03336   5.7196E-04 -1.7768E-03  1.8666E-03  -72.157
    20    1   0.0000   0.0000   0.3002  0.03336   3.7275E-04 -1.2463E-03  1.3009E-03  -73.349
    21    1   0.0000   0.0000   0.3336  0.03336   1.5891E-04 -5.6989E-04  5.9163E-04  -74.419



                                        - - - POWER BUDGET - - -

                                           INPUT POWER   = 7.6417E-04 WATTS
                                           RADIATED POWER= 7.6417E-04 WATTS
                                           STRUCTURE LOSS= 0.0000E+00 WATTS
                                           NETWORK LOSS  = 0.0000E+00 WATTS
                                           EFFICIENCY    = 100.00 PERCENT




                                 - - - - - - FREQUENCY - - - - - -

                                    FREQUENCY= 1.4500E+03 MHZ
                                    WAVELENGTH= 2.0675E-01 METERS




                    APPROXIMATE INTEGRATION EMPLOYED FOR SEGMENTS MORE THAN   1.000 WAVELENGTHS APART



                               - - - STRUCTURE IMPEDANCE LOADING - - -

                                   THIS STRUCTURE IS NOT LOADED



                                  - - - ANTENNA ENVIRONMENT - - -

                                            FREE SPACE



                                - - - MATRIX TIMING - - -

                        FILL=    0.008 SEC.,  FACTOR=    0.000 SEC.



                                          - - - ANTENNA INPUT PARAMETERS - - -

   TAG   SEG.    VOLTAGE (VOLTS)         CURRENT (AMPS)         IMPEDANCE (OHMS)        ADMITTANCE (MHOS)      POWER
   NO.   NO.    REAL        IMAG.       REAL        IMAG.       REAL        IMAG.       REAL        IMAG.     (WATTS)
     1    11 1.00000E+00 0.00000E+00 1.40838E-03-8.83216E-04 5.09617E+02 3.19589E+02 1.40838E-03-8.83216E-04 7.04189E-04



                             - - - CURRENTS AND LOCATION - - -

                                 DISTANCES IN WAVELENGTHS


  SEG.  TAG    COORD. OF SEG. CENTER     SEG.            - - - CURRENT (AMPS) - - -
  NO.   NO.     X        Y        Z      LENGTH     REAL        IMAG.       MAG.        PHASE
     1    1   0.0000   0.0000  -0.3455  0.03455   1.4129E-04 -5.5555E-04  5.7324E-04  -75.731
     2    1   0.0000   0.0000  -0.3109  0.03455   3.3397E-04 -1.2139E-03  1.2590E-03  -74.618
     3    1   0.0000   0.0000  -0.2764  0.03455   5.1583E-04 -1.7271E-03  1.8025E-03  -73.371
     4    1   0.0000   0.0000  -0.2418  0.03455   6.9324E-04 -2.1293E-03  2.2393E-03  -71.966
     5    1   0.0000   0.0000  -0.2073  0.03455   8.6154E-04 -2.4097E-03  2.5591E-03  -70.326
     6    1   0.0000   0.0000  -0.1727  0.03455   1.0155E-03 -2.5573E-03  2.7515E-03  -68.342
     7    1   0.0000   0.0000  -0.1382  0.03455   1.1498E-03 -2.5627E-03  2.8088E-03  -65.836
     8    1   0.0000   0.0000  -0.1036  0.03455   1.2597E-03 -2.4176E-03  2.7261E-03  -62.478
     9    1   0.0000   0.0000  -0.0691  0.03455   1.3413E-03 -2.1119E-03  2.5019E-03  -57.581
    10    1   0.0000   0.0000  -0.0345  0.03455   1.3914E-03 -1.5867E-03  2.1103E-03  -48.750
    11    1   0.0000   0.0000   0.0000  0.03455   1.4084E-03 -8.8322E-04  1.6624E-03  -32.092
    12    1   0.0000   0.0000   0.0345  0.03455   1.3914E-03 -1.5867E-03  2.1103E-03  -48.750
    13    1   0.0000   0.0000   0.0691  0.03455   1.3413E-03 -2.1119E-03  2.5019E-03  -57.581
    14    1   0.0000   0.0000   0.1036  0.03455   1.2597E-03 -2.4176E-03  2.7261E-03  -62.478
    15    1   0.0000   0.0000   0.1382  0.03455   1.1498E-03 -2.5627E-03  2.8088E-03  -65.836
    16    1   0.0000   0.0000   0.1727  0.03455   1.0155E-03 -2.5573E-03  2.7515E-03  -68.342
    17    1   0.0000   0.0000   0.2073  0.03455   8.6154E-04 -2.4097E-03  2.5591E-03  -70.326
    18    1   0.0000   0.0000   0.2418  0.03455   6.9324E-04 -2.1293E-03  2.2393E-03  -71.966
    19    1   0.0000   0.0000   0.2764  0.03455   5.1583E-04 -1.7271E-03  1.8025E-03  -73.371
    20    1   0.0000   0.0000   0.3109  0.03455   3.3397E-04 -1.2139E-03  1.2590E-03  -74.618
    21    1   0.0000   0.0000   0.3455  0.03455   1.4129E-04 -5.5555E-04  5.7324E-04  -75.731



                                        - - - POWER BUDGET - - -

                                           INPUT POWER   = 7.0419E-04 WATTS
                                           RADIATED POWER= 7.0419E-04 WATTS
                                           STRUCTURE LOSS= 0.0000E+00 WATTS
                                           NETWORK LOSS  = 0.0000E+00 WATTS
                                           EFFICIENCY    = 100.00 PERCENT




                                 - - - - - - FREQUENCY - - - - - -

                                    FREQUENCY= 1.5000E+03 MHZ
                                    WAVELENGTH= 1.9986E-01 METERS




                    APPROXIMATE INTEGRATION EMPLOYED FOR SEGMENTS MORE THAN   1.000 WAVELENGTHS APART



                               - - - STRUCTURE IMPEDANCE LOADING - - -

                                   THIS STRUCTURE IS NOT LOADED



                                  - - - ANTENNA ENVIRONMENT - - -

                                            FREE SPACE



                                - - - MATRIX TIMING - - -

                        FILL=    0.008 SEC.,  FACTOR=    0.000 SEC.



                                          - - - ANTENNA INPUT PARAMETERS - - -

   TAG   SEG.    VOLTAGE (VOLTS)         CURRENT (AMPS)         IMPEDANCE (OHMS)        ADMITTANCE (MHOS)      POWER
   NO.   NO.    REAL        IMAG.       REAL        IMAG.       REAL        IMAG.       REAL        IMAG.     (WATTS)
     1    11 1.00000E+00 0.00000E+00 1.31329E-03-6.48624E-04 6.12129E+02 3.02325E+02 1.31329E-03-6.48624E-04 6.56646E-04



                             - - - CURRENTS AND LOCATION - - -

                                 DISTANCES IN WAVELENGTHS


  SEG.  TAG    COORD. OF SEG. CENTER     SEG.            - - - CURRENT (AMPS) - - -
  NO.   NO.     X        Y        Z      LENGTH     REAL        IMAG.       MAG.        PHASE
     1    1   0.0000   0.0000  -0.3574  0.03574   1.2679E-04 -5.4577E-04  5.6030E-04  -76.921
     2    1   0.0000   0.0000  -0.3217  0.03574   3.0222E-04 -1.1915E-03  1.2292E-03  -75.768
     3    1   0.0000   0.0000  -0.2859  0.03574   4.7009E-04 -1.6916E-03  1.7557E-03  -74.470
     4    1   0.0000   0.0000  -0.2502  0.03574   6.3546E-04 -2.0782E-03  2.1732E-03  -72.998
     5    1   0.0000   0.0000  -0.2144  0.03574   7.9354E-04 -2.3397E-03  2.4706E-03  -71.265
     6    1   0.0000   0.0000  -0.1787  0.03574   9.3898E-04 -2.4650E-03  2.6378E-03  -69.147
     7    1   0.0000   0.0000  -0.1430  0.03574   1.0665E-03 -2.4449E-03  2.6674E-03  -66.433
     8    1   0.0000   0.0000  -0.1072  0.03574   1.1712E-03 -2.2720E-03  2.5561E-03  -62.729
     9    1   0.0000   0.0000  -0.0715  0.03574   1.2491E-03 -1.9372E-03  2.3050E-03  -57.186
    10    1   0.0000   0.0000  -0.0357  0.03574   1.2971E-03 -1.3810E-03  1.8946E-03  -46.796
    11    1   0.0000   0.0000   0.0000  0.03574   1.3133E-03 -6.4862E-04  1.4647E-03  -26.284
    12    1   0.0000   0.0000   0.0357  0.03574   1.2971E-03 -1.3810E-03  1.8946E-03  -46.796
    13    1   0.0000   0.0000   0.0715  0.03574   1.2491E-03 -1.9372E-03  2.3050E-03  -57.186
    14    1   0.0000   0.0000   0.1072  0.03574   1.1712E-03 -2.2720E-03  2.5561E-03  -62.729
    15    1   0.0000   0.0000   0.1430  0.03574   1.0665E-03 -2.4449E-03  2.6674E-03  -66.433
    16    1   0.0000   0.0000   0.1787  0.03574   9.3898E-04 -2.4650E-03  2.6378E-03  -69.147
    17    1   0.0000   0.0000   0.2144  0.03574   7.9354E-04 -2.3397E-03  2.4706E-03  -71.265
    18    1   0.0000   0.0000   0.2502  0.03574   6.3546E-04 -2.0782E-03  2.1732E-03  -72.998
    19    1   0.0000   0.0000   0.2859  0.03574   4.7009E-04 -1.6916E-03  1.7557E-03  -74.470
    20    1   0.0000   0.0000   0.3217  0.03574   3.0222E-04 -1.1915E-03  1.2292E-03  -75.768
    21    1   0.0000   0.0000   0.3574  0.03574   1.2679E-04 -5.4577E-04  5.6030E-04  -76.921



                                        - - - POWER BUDGET - - -

                                           INPUT POWER   = 6.5665E-04 WATTS
                                           RADIATED POWER= 6.5665E-04 WATTS
                                           STRUCTURE LOSS= 0.0000E+00 WATTS
                                           NETWORK LOSS  = 0.0000E+00 WATTS
                                           EFFICIENCY    = 100.00 PERCENT
 ***** DATA CARD NO.  4   EN   0     0     0     0  0.00000E+00  0.00000E+00  0.00000E+00  0.00000E+00  0.00000E+00  0.00000E+00

 RUN TIME =     0.201
