1



                                 *********************************************

                                    NUMERICAL ELECTROMAGNETICS CODE (NEC-2D)

                                 *********************************************




                                     - - - - COMMENTS - - - -


                          TEST1200.NEC: NEC2 timing test - 1200 segments.                              




                                 - - - STRUCTURE SPECIFICATION - - -

                                     COORDINATES MUST BE INPUT IN
                                     METERS OR BE SCALED TO METERS
                                     BEFORE STRUCTURE INPUT IS ENDED


  WIRE                                                                               NO. OF    FIRST  LAST     TAG
  NO.        X1         Y1         Z1          X2         Y2         Z2      RADIUS   SEG.     SEG.   SEG.     NO.
     1    0.00000    0.00000    0.00000     0.00000    0.00000    1.00000    0.00100     10        1    10       0
      THE STRUCTURE HAS BEEN MOVED, MOVE DATA CARD IS -
        0    9   0.00000   0.00000   0.00000   0.20000   0.00000   0.00000   0.00000
      THE STRUCTURE HAS BEEN MOVED, MOVE DATA CARD IS -
        0   11   0.00000   0.00000   0.00000   0.00000   0.20000   0.00000   0.00000

   TOTAL SEGMENTS USED= 1200     NO. SEG. IN A SYMMETRIC CELL= 1200     SYMMETRY FLAG=  0


         - MULTIPLE WIRE JUNCTIONS -
 JUNCTION    SEGMENTS  (- FOR END 1, + FOR END 2)
  NONE




                                 - - - - SEGMENTATION DATA - - - -

                                        COORDINATES IN METERS

                         I+ AND I- INDICATE THE SEGMENTS BEFORE AND AFTER I


  SEG.   COORDINATES OF SEG. CENTER     SEG.     ORIENTATION ANGLES    WIRE    CONNECTION DATA   TAG
  NO.       X         Y         Z       LENGTH     ALPHA     BETA      RADIUS    I-   I    I+    NO.
     1   0.00000   0.00000   0.05000   0.10000   90.00000   0.00000   0.00100     0    1    2      0
     2   0.00000   0.00000   0.15000   0.10000   90.00000   0.00000   0.00100     1    2    3      0
     3   0.00000   0.00000   0.25000   0.10000   90.00000   0.00000   0.00100     2    3    4      0
     4   0.00000   0.00000   0.35000   0.10000   90.00000   0.00000   0.00100     3    4    5      0
     5   0.00000   0.00000   0.45000   0.10000   90.00000   0.00000   0.00100     4    5    6      0
     6   0.00000   0.00000   0.55000   0.10000   90.00000   0.00000   0.00100     5    6    7      0
     7   0.00000   0.00000   0.65000   0.10000   90.00000   0.00000   0.00100     6    7    8      0
     8   0.00000   0.00000   0.75000   0.10000   90.00000   0.00000   0.00100     7    8    9      0
     9   0.00000   0.00000   0.85000   0.10000   90.00000   0.00000   0.00100     8    9   10      0
    10   0.00000   0.00000   0.95000   0.10000   90.00000   0.00000   0.00100     9   10    0      0
    11   0.20000   0.00000   0.05000   0.10000   90.00000   0.00000   0.00100     0   11   12      0
    12   0.20000   0.00000   0.15000   0.10000   90.00000   0.00000   0.00100    11   12   13      0
    13   0.20000   0.00000   0.25000   0.10000   90.00000   0.00000   0.00100    12   13   14      0
    14   0.20000   0.00000   0.35000   0.10000   90.00000   0.00000   0.00100    13   14   15      0
    15   0.20000   0.00000   0.45000   0.10000   90.00000   0.00000   0.00100    14   15   16      0
    16   0.20000   0.00000   0.55000   0.10000   90.00000   0.00000   0.00100    15   16   17      0
    17   0.20000   0.00000   0.65000   0.10000   90.00000   0.00000   0.00100    16   17   18      0
    18   0.20000   0.00000   0.75000   0.10000   90.00000   0.00000   0.00100    17   18   19      0
    19   0.20000   0.00000   0.85000   0.10000   90.00000   0.00000   0.00100    18   19   20      0
    20   0.20000   0.00000   0.95000   0.10000   90.00000   0.00000   0.00100    19   20    0      0
    21   0.40000   0.00000   0.05000   0.10000   90.00000   0.00000   0.00100     0   21   22      0
    22   0.40000   0.00000   0.15000   0.10000   90.00000   0.00000   0.00100    21   22   23      0
    23   0.40000   0.00000   0.25000   0.10000   90.00000   0.00000   0.00100    22   23   24      0
    24   0.40000   0.00000   0.35000   0.10000   90.00000   0.00000   0.00100    23   24   25      0
    25   0.40000   0.00000   0.45000   0.10000   90.00000   0.00000   0.00100    24   25   26      0
    26   0.40000   0.00000   0.55000   0.10000   90.00000   0.00000   0.00100    25   26   27      0
    27   0.40000   0.00000   0.65000   0.10000   90.00000   0.00000   0.00100    26   27   28      0
    28   0.40000   0.00000   0.75000   0.10000   90.00000   0.00000   0.00100    27   28   29      0
    29   0.40000   0.00000   0.85000   0.10000   90.00000   0.00000   0.00100    28   29   30      0
    30   0.40000   0.00000   0.95000   0.10000   90.00000   0.00000   0.00100    29   30    0      0
    31   0.60000   0.00000   0.05000   0.10000   90.00000   0.00000   0.00100     0   31   32      0
    32   0.60000   0.00000   0.15000   0.10000   90.00000   0.00000   0.00100    31   32   33      0
    33   0.60000   0.00000   0.25000   0.10000   90.00000   0.00000   0.00100    32   33   34      0
    34   0.60000   0.00000   0.35000   0.10000   90.00000   0.00000   0.00100    33   34   35      0
    35   0.60000   0.00000   0.45000   0.10000   90.00000   0.00000   0.00100    34   35   36      0
    36   0.60000   0.00000   0.55000   0.10000   90.00000   0.00000   0.00100    35   36   37      0
    37   0.60000   0.00000   0.65000   0.10000   90.00000   0.00000   0.00100    36   37   38      0
    38   0.60000   0.00000   0.75000   0.10000   90.00000   0.00000   0.00100    37   38   39      0
    39   0.60000   0.00000   0.85000   0.10000   90.00000   0.00000   0.00100    38   39   40      0
    40   0.60000   0.00000   0.95000   0.10000   90.00000   0.00000   0.00100    39   40    0      0
    41   0.80000   0.00000   0.05000   0.10000   90.00000   0.00000   0.00100     0   41   42      0
    42   0.80000   0.00000   0.15000   0.10000   90.00000   0.00000   0.00100    41   42   43      0
    43   0.80000   0.00000   0.25000   0.10000   90.00000   0.00000   0.00100    42   43   44      0
    44   0.80000   0.00000   0.35000   0.10000   90.00000   0.00000   0.00100    43   44   45      0
    45   0.80000   0.00000   0.45000   0.10000   90.00000   0.00000   0.00100    44   45   46      0
    46   0.80000   0.00000   0.55000   0.10000   90.00000   0.00000   0.00100    45   46   47      0
    47   0.80000   0.00000   0.65000   0.10000   90.00000   0.00000   0.00100    46   47   48      0
    48   0.80000   0.00000   0.75000   0.10000   90.00000   0.00000   0.00100    47   48   49      0
    49   0.80000   0.00000   0.85000   0.10000   90.00000   0.00000   0.00100    48   49   50      0
    50   0.80000   0.00000   0.95000   0.10000   90.00000   0.00000   0.00100    49   50    0      0
    51   1.00000   0.00000   0.05000   0.10000   90.00000   0.00000   0.00100     0   51   52      0
    52   1.00000   0.00000   0.15000   0.10000   90.00000   0.00000   0.00100    51   52   53      0
    53   1.00000   0.00000   0.25000   0.10000   90.00000   0.00000   0.00100    52   53   54      0
    54   1.00000   0.00000   0.35000   0.10000   90.00000   0.00000   0.00100    53   54   55      0
    55   1.00000   0.00000   0.45000   0.10000   90.00000   0.00000   0.00100    54   55   56      0
    56   1.00000   0.00000   0.55000   0.10000   90.00000   0.00000   0.00100    55   56   57      0
    57   1.00000   0.00000   0.65000   0.10000   90.00000   0.00000   0.00100    56   57   58      0
    58   1.00000   0.00000   0.75000   0.10000   90.00000   0.00000   0.00100    57   58   59      0
    59   1.00000   0.00000   0.85000   0.10000   90.00000   0.00000   0.00100    58   59   60      0
    60   1.00000   0.00000   0.95000   0.10000   90.00000   0.00000   0.00100    59   60    0      0
    61   1.20000   0.00000   0.05000   0.10000   90.00000   0.00000   0.00100     0   61   62      0
    62   1.20000   0.00000   0.15000   0.10000   90.00000   0.00000   0.00100    61   62   63      0
    63   1.20000   0.00000   0.25000   0.10000   90.00000   0.00000   0.00100    62   63   64      0
    64   1.20000   0.00000   0.35000   0.10000   90.00000   0.00000   0.00100    63   64   65      0
    65   1.20000   0.00000   0.45000   0.10000   90.00000   0.00000   0.00100    64   65   66      0
    66   1.20000   0.00000   0.55000   0.10000   90.00000   0.00000   0.00100    65   66   67      0
    67   1.20000   0.00000   0.65000   0.10000   90.00000   0.00000   0.00100    66   67   68      0
    68   1.20000   0.00000   0.75000   0.10000   90.00000   0.00000   0.00100    67   68   69      0
    69   1.20000   0.00000   0.85000   0.10000   90.00000   0.00000   0.00100    68   69   70      0
    70   1.20000   0.00000   0.95000   0.10000   90.00000   0.00000   0.00100    69   70    0      0
    71   1.40000   0.00000   0.05000   0.10000   90.00000   0.00000   0.00100     0   71   72      0
    72   1.40000   0.00000   0.15000   0.10000   90.00000   0.00000   0.00100    71   72   73      0
    73   1.40000   0.00000   0.25000   0.10000   90.00000   0.00000   0.00100    72   73   74      0
    74   1.40000   0.00000   0.35000   0.10000   90.00000   0.00000   0.00100    73   74   75      0
    75   1.40000   0.00000   0.45000   0.10000   90.00000   0.00000   0.00100    74   75   76      0
    76   1.40000   0.00000   0.55000   0.10000   90.00000   0.00000   0.00100    75   76   77      0
    77   1.40000   0.00000   0.65000   0.10000   90.00000   0.00000   0.00100    76   77   78      0
    78   1.40000   0.00000   0.75000   0.10000   90.00000   0.00000   0.00100    77   78   79      0
    79   1.40000   0.00000   0.85000   0.10000   90.00000   0.00000   0.00100    78   79   80      0
    80   1.40000   0.00000   0.95000   0.10000   90.00000   0.00000   0.00100    79   80    0      0
    81   1.60000   0.00000   0.05000   0.10000   90.00000   0.00000   0.00100     0   81   82      0
    82   1.60000   0.00000   0.15000   0.10000   90.00000   0.00000   0.00100    81   82   83      0
    83   1.60000   0.00000   0.25000   0.10000   90.00000   0.00000   0.00100    82   83   84      0
    84   1.60000   0.00000   0.35000   0.10000   90.00000   0.00000   0.00100    83   84   85      0
    85   1.60000   0.00000   0.45000   0.10000   90.00000   0.00000   0.00100    84   85   86      0
    86   1.60000   0.00000   0.55000   0.10000   90.00000   0.00000   0.00100    85   86   87      0
    87   1.60000   0.00000   0.65000   0.10000   90.00000   0.00000   0.00100    86   87   88      0
    88   1.60000   0.00000   0.75000   0.10000   90.00000   0.00000   0.00100    87   88   89      0
    89   1.60000   0.00000   0.85000   0.10000   90.00000   0.00000   0.00100    88   89   90      0
    90   1.60000   0.00000   0.95000   0.10000   90.00000   0.00000   0.00100    89   90    0      0
    91   1.80000   0.00000   0.05000   0.10000   90.00000   0.00000   0.00100     0   91   92      0
    92   1.80000   0.00000   0.15000   0.10000   90.00000   0.00000   0.00100    91   92   93      0
    93   1.80000   0.00000   0.25000   0.10000   90.00000   0.00000   0.00100    92   93   94      0
    94   1.80000   0.00000   0.35000   0.10000   90.00000   0.00000   0.00100    93   94   95      0
    95   1.80000   0.00000   0.45000   0.10000   90.00000   0.00000   0.00100    94   95   96      0
    96   1.80000   0.00000   0.55000   0.10000   90.00000   0.00000   0.00100    95   96   97      0
    97   1.80000   0.00000   0.65000   0.10000   90.00000   0.00000   0.00100    96   97   98      0
    98   1.80000   0.00000   0.75000   0.10000   90.00000   0.00000   0.00100    97   98   99      0
    99   1.80000   0.00000   0.85000   0.10000   90.00000   0.00000   0.00100    98   99  100      0
   100   1.80000   0.00000   0.95000   0.10000   90.00000   0.00000   0.00100    99  100    0      0
   101   0.00000   0.20000   0.05000   0.10000   90.00000   0.00000   0.00100     0  101  102      0
   102   0.00000   0.20000   0.15000   0.10000   90.00000   0.00000   0.00100   101  102  103      0
   103   0.00000   0.20000   0.25000   0.10000   90.00000   0.00000   0.00100   102  103  104      0
   104   0.00000   0.20000   0.35000   0.10000   90.00000   0.00000   0.00100   103  104  105      0
   105   0.00000   0.20000   0.45000   0.10000   90.00000   0.00000   0.00100   104  105  106      0
   106   0.00000   0.20000   0.55000   0.10000   90.00000   0.00000   0.00100   105  106  107      0
   107   0.00000   0.20000   0.65000   0.10000   90.00000   0.00000   0.00100   106  107  108      0
   108   0.00000   0.20000   0.75000   0.10000   90.00000   0.00000   0.00100   107  108  109      0
   109   0.00000   0.20000   0.85000   0.10000   90.00000   0.00000   0.00100   108  109  110      0
   110   0.00000   0.20000   0.95000   0.10000   90.00000   0.00000   0.00100   109  110    0      0
   111   0.20000   0.20000   0.05000   0.10000   90.00000   0.00000   0.00100     0  111  112      0
   112   0.20000   0.20000   0.15000   0.10000   90.00000   0.00000   0.00100   111  112  113      0
   113   0.20000   0.20000   0.25000   0.10000   90.00000   0.00000   0.00100   112  113  114      0
   114   0.20000   0.20000   0.35000   0.10000   90.00000   0.00000   0.00100   113  114  115      0
   115   0.20000   0.20000   0.45000   0.10000   90.00000   0.00000   0.00100   114  115  116      0
   116   0.20000   0.20000   0.55000   0.10000   90.00000   0.00000   0.00100   115  116  117      0
   117   0.20000   0.20000   0.65000   0.10000   90.00000   0.00000   0.00100   116  117  118      0
   118   0.20000   0.20000   0.75000   0.10000   90.00000   0.00000   0.00100   117  118  119      0
   119   0.20000   0.20000   0.85000   0.10000   90.00000   0.00000   0.00100   118  119  120      0
   120   0.20000   0.20000   0.95000   0.10000   90.00000   0.00000   0.00100   119  120    0      0
   121   0.40000   0.20000   0.05000   0.10000   90.00000   0.00000   0.00100     0  121  122      0
   122   0.40000   0.20000   0.15000   0.10000   90.00000   0.00000   0.00100   121  122  123      0
   123   0.40000   0.20000   0.25000   0.10000   90.00000   0.00000   0.00100   122  123  124      0
   124   0.40000   0.20000   0.35000   0.10000   90.00000   0.00000   0.00100   123  124  125      0
   125   0.40000   0.20000   0.45000   0.10000   90.00000   0.00000   0.00100   124  125  126      0
   126   0.40000   0.20000   0.55000   0.10000   90.00000   0.00000   0.00100   125  126  127      0
   127   0.40000   0.20000   0.65000   0.10000   90.00000   0.00000   0.00100   126  127  128      0
   128   0.40000   0.20000   0.75000   0.10000   90.00000   0.00000   0.00100   127  128  129      0
   129   0.40000   0.20000   0.85000   0.10000   90.00000   0.00000   0.00100   128  129  130      0
   130   0.40000   0.20000   0.95000   0.10000   90.00000   0.00000   0.00100   129  130    0      0
   131   0.60000   0.20000   0.05000   0.10000   90.00000   0.00000   0.00100     0  131  132      0
   132   0.60000   0.20000   0.15000   0.10000   90.00000   0.00000   0.00100   131  132  133      0
   133   0.60000   0.20000   0.25000   0.10000   90.00000   0.00000   0.00100   132  133  134      0
   134   0.60000   0.20000   0.35000   0.10000   90.00000   0.00000   0.00100   133  134  135      0
   135   0.60000   0.20000   0.45000   0.10000   90.00000   0.00000   0.00100   134  135  136      0
   136   0.60000   0.20000   0.55000   0.10000   90.00000   0.00000   0.00100   135  136  137      0
   137   0.60000   0.20000   0.65000   0.10000   90.00000   0.00000   0.00100   136  137  138      0
   138   0.60000   0.20000   0.75000   0.10000   90.00000   0.00000   0.00100   137  138  139      0
   139   0.60000   0.20000   0.85000   0.10000   90.00000   0.00000   0.00100   138  139  140      0
   140   0.60000   0.20000   0.95000   0.10000   90.00000   0.00000   0.00100   139  140    0      0
   141   0.80000   0.20000   0.05000   0.10000   90.00000   0.00000   0.00100     0  141  142      0
   142   0.80000   0.20000   0.15000   0.10000   90.00000   0.00000   0.00100   141  142  143      0
   143   0.80000   0.20000   0.25000   0.10000   90.00000   0.00000   0.00100   142  143  144      0
   144   0.80000   0.20000   0.35000   0.10000   90.00000   0.00000   0.00100   143  144  145      0
   145   0.80000   0.20000   0.45000   0.10000   90.00000   0.00000   0.00100   144  145  146      0
   146   0.80000   0.20000   0.55000   0.10000   90.00000   0.00000   0.00100   145  146  147      0
   147   0.80000   0.20000   0.65000   0.10000   90.00000   0.00000   0.00100   146  147  148      0
   148   0.80000   0.20000   0.75000   0.10000   90.00000   0.00000   0.00100   147  148  149      0
   149   0.80000   0.20000   0.85000   0.10000   90.00000   0.00000   0.00100   148  149  150      0
   150   0.80000   0.20000   0.95000   0.10000   90.00000   0.00000   0.00100   149  150    0      0
   151   1.00000   0.20000   0.05000   0.10000   90.00000   0.00000   0.00100     0  151  152      0
   152   1.00000   0.20000   0.15000   0.10000   90.00000   0.00000   0.00100   151  152  153      0
   153   1.00000   0.20000   0.25000   0.10000   90.00000   0.00000   0.00100   152  153  154      0
   154   1.00000   0.20000   0.35000   0.10000   90.00000   0.00000   0.00100   153  154  155      0
   155   1.00000   0.20000   0.45000   0.10000   90.00000   0.00000   0.00100   154  155  156      0
   156   1.00000   0.20000   0.55000   0.10000   90.00000   0.00000   0.00100   155  156  157      0
   157   1.00000   0.20000   0.65000   0.10000   90.00000   0.00000   0.00100   156  157  158      0
   158   1.00000   0.20000   0.75000   0.10000   90.00000   0.00000   0.00100   157  158  159      0
   159   1.00000   0.20000   0.85000   0.10000   90.00000   0.00000   0.00100   158  159  160      0
   160   1.00000   0.20000   0.95000   0.10000   90.00000   0.00000   0.00100   159  160    0      0
   161   1.20000   0.20000   0.05000   0.10000   90.00000   0.00000   0.00100     0  161  162      0
   162   1.20000   0.20000   0.15000   0.10000   90.00000   0.00000   0.00100   161  162  163      0
   163   1.20000   0.20000   0.25000   0.10000   90.00000   0.00000   0.00100   162  163  164      0
   164   1.20000   0.20000   0.35000   0.10000   90.00000   0.00000   0.00100   163  164  165      0
   165   1.20000   0.20000   0.45000   0.10000   90.00000   0.00000   0.00100   164  165  166      0
   166   1.20000   0.20000   0.55000   0.10000   90.00000   0.00000   0.00100   165  166  167      0
   167   1.20000   0.20000   0.65000   0.10000   90.00000   0.00000   0.00100   166  167  168      0
   168   1.20000   0.20000   0.75000   0.10000   90.00000   0.00000   0.00100   167  168  169      0
   169   1.20000   0.20000   0.85000   0.10000   90.00000   0.00000   0.00100   168  169  170      0
   170   1.20000   0.20000   0.95000   0.10000   90.00000   0.00000   0.00100   169  170    0      0
   171   1.40000   0.20000   0.05000   0.10000   90.00000   0.00000   0.00100     0  171  172      0
   172   1.40000   0.20000   0.15000   0.10000   90.00000   0.00000   0.00100   171  172  173      0
   173   1.40000   0.20000   0.25000   0.10000   90.00000   0.00000   0.00100   172  173  174      0
   174   1.40000   0.20000   0.35000   0.10000   90.00000   0.00000   0.00100   173  174  175      0
   175   1.40000   0.20000   0.45000   0.10000   90.00000   0.00000   0.00100   174  175  176      0
   176   1.40000   0.20000   0.55000   0.10000   90.00000   0.00000   0.00100   175  176  177      0
   177   1.40000   0.20000   0.65000   0.10000   90.00000   0.00000   0.00100   176  177  178      0
   178   1.40000   0.20000   0.75000   0.10000   90.00000   0.00000   0.00100   177  178  179      0
   179   1.40000   0.20000   0.85000   0.10000   90.00000   0.00000   0.00100   178  179  180      0
   180   1.40000   0.20000   0.95000   0.10000   90.00000   0.00000   0.00100   179  180    0      0
   181   1.60000   0.20000   0.05000   0.10000   90.00000   0.00000   0.00100     0  181  182      0
   182   1.60000   0.20000   0.15000   0.10000   90.00000   0.00000   0.00100   181  182  183      0
   183   1.60000   0.20000   0.25000   0.10000   90.00000   0.00000   0.00100   182  183  184      0
   184   1.60000   0.20000   0.35000   0.10000   90.00000   0.00000   0.00100   183  184  185      0
   185   1.60000   0.20000   0.45000   0.10000   90.00000   0.00000   0.00100   184  185  186      0
   186   1.60000   0.20000   0.55000   0.10000   90.00000   0.00000   0.00100   185  186  187      0
   187   1.60000   0.20000   0.65000   0.10000   90.00000   0.00000   0.00100   186  187  188      0
   188   1.60000   0.20000   0.75000   0.10000   90.00000   0.00000   0.00100   187  188  189      0
   189   1.60000   0.20000   0.85000   0.10000   90.00000   0.00000   0.00100   188  189  190      0
   190   1.60000   0.20000   0.95000   0.10000   90.00000   0.00000   0.00100   189  190    0      0
   191   1.80000   0.20000   0.05000   0.10000   90.00000   0.00000   0.00100     0  191  192      0
   192   1.80000   0.20000   0.15000   0.10000   90.00000   0.00000   0.00100   191  192  193      0
   193   1.80000   0.20000   0.25000   0.10000   90.00000   0.00000   0.00100   192  193  194      0
   194   1.80000   0.20000   0.35000   0.10000   90.00000   0.00000   0.00100   193  194  195      0
   195   1.80000   0.20000   0.45000   0.10000   90.00000   0.00000   0.00100   194  195  196      0
   196   1.80000   0.20000   0.55000   0.10000   90.00000   0.00000   0.00100   195  196  197      0
   197   1.80000   0.20000   0.65000   0.10000   90.00000   0.00000   0.00100   196  197  198      0
   198   1.80000   0.20000   0.75000   0.10000   90.00000   0.00000   0.00100   197  198  199      0
   199   1.80000   0.20000   0.85000   0.10000   90.00000   0.00000   0.00100   198  199  200      0
   200   1.80000   0.20000   0.95000   0.10000   90.00000   0.00000   0.00100   199  200    0      0
   201   0.00000   0.40000   0.05000   0.10000   90.00000   0.00000   0.00100     0  201  202      0
   202   0.00000   0.40000   0.15000   0.10000   90.00000   0.00000   0.00100   201  202  203      0
   203   0.00000   0.40000   0.25000   0.10000   90.00000   0.00000   0.00100   202  203  204      0
   204   0.00000   0.40000   0.35000   0.10000   90.00000   0.00000   0.00100   203  204  205      0
   205   0.00000   0.40000   0.45000   0.10000   90.00000   0.00000   0.00100   204  205  206      0
   206   0.00000   0.40000   0.55000   0.10000   90.00000   0.00000   0.00100   205  206  207      0
   207   0.00000   0.40000   0.65000   0.10000   90.00000   0.00000   0.00100   206  207  208      0
   208   0.00000   0.40000   0.75000   0.10000   90.00000   0.00000   0.00100   207  208  209      0
   209   0.00000   0.40000   0.85000   0.10000   90.00000   0.00000   0.00100   208  209  210      0
   210   0.00000   0.40000   0.95000   0.10000   90.00000   0.00000   0.00100   209  210    0      0
   211   0.20000   0.40000   0.05000   0.10000   90.00000   0.00000   0.00100     0  211  212      0
   212   0.20000   0.40000   0.15000   0.10000   90.00000   0.00000   0.00100   211  212  213      0
   213   0.20000   0.40000   0.25000   0.10000   90.00000   0.00000   0.00100   212  213  214      0
   214   0.20000   0.40000   0.35000   0.10000   90.00000   0.00000   0.00100   213  214  215      0
   215   0.20000   0.40000   0.45000   0.10000   90.00000   0.00000   0.00100   214  215  216      0
   216   0.20000   0.40000   0.55000   0.10000   90.00000   0.00000   0.00100   215  216  217      0
   217   0.20000   0.40000   0.65000   0.10000   90.00000   0.00000   0.00100   216  217  218      0
   218   0.20000   0.40000   0.75000   0.10000   90.00000   0.00000   0.00100   217  218  219      0
   219   0.20000   0.40000   0.85000   0.10000   90.00000   0.00000   0.00100   218  219  220      0
   220   0.20000   0.40000   0.95000   0.10000   90.00000   0.00000   0.00100   219  220    0      0
   221   0.40000   0.40000   0.05000   0.10000   90.00000   0.00000   0.00100     0  221  222      0
   222   0.40000   0.40000   0.15000   0.10000   90.00000   0.00000   0.00100   221  222  223      0
   223   0.40000   0.40000   0.25000   0.10000   90.00000   0.00000   0.00100   222  223  224      0
   224   0.40000   0.40000   0.35000   0.10000   90.00000   0.00000   0.00100   223  224  225      0
   225   0.40000   0.40000   0.45000   0.10000   90.00000   0.00000   0.00100   224  225  226      0
   226   0.40000   0.40000   0.55000   0.10000   90.00000   0.00000   0.00100   225  226  227      0
   227   0.40000   0.40000   0.65000   0.10000   90.00000   0.00000   0.00100   226  227  228      0
   228   0.40000   0.40000   0.75000   0.10000   90.00000   0.00000   0.00100   227  228  229      0
   229   0.40000   0.40000   0.85000   0.10000   90.00000   0.00000   0.00100   228  229  230      0
   230   0.40000   0.40000   0.95000   0.10000   90.00000   0.00000   0.00100   229  230    0      0
   231   0.60000   0.40000   0.05000   0.10000   90.00000   0.00000   0.00100     0  231  232      0
   232   0.60000   0.40000   0.15000   0.10000   90.00000   0.00000   0.00100   231  232  233      0
   233   0.60000   0.40000   0.25000   0.10000   90.00000   0.00000   0.00100   232  233  234      0
   234   0.60000   0.40000   0.35000   0.10000   90.00000   0.00000   0.00100   233  234  235      0
   235   0.60000   0.40000   0.45000   0.10000   90.00000   0.00000   0.00100   234  235  236      0
   236   0.60000   0.40000   0.55000   0.10000   90.00000   0.00000   0.00100   235  236  237      0
   237   0.60000   0.40000   0.65000   0.10000   90.00000   0.00000   0.00100   236  237  238      0
   238   0.60000   0.40000   0.75000   0.10000   90.00000   0.00000   0.00100   237  238  239      0
   239   0.60000   0.40000   0.85000   0.10000   90.00000   0.00000   0.00100   238  239  240      0
   240   0.60000   0.40000   0.95000   0.10000   90.00000   0.00000   0.00100   239  240    0      0
   241   0.80000   0.40000   0.05000   0.10000   90.00000   0.00000   0.00100     0  241  242      0
   242   0.80000   0.40000   0.15000   0.10000   90.00000   0.00000   0.00100   241  242  243      0
   243   0.80000   0.40000   0.25000   0.10000   90.00000   0.00000   0.00100   242  243  244      0
   244   0.80000   0.40000   0.35000   0.10000   90.00000   0.00000   0.00100   243  244  245      0
   245   0.80000   0.40000   0.45000   0.10000   90.00000   0.00000   0.00100   244  245  246      0
   246   0.80000   0.40000   0.55000   0.10000   90.00000   0.00000   0.00100   245  246  247      0
   247   0.80000   0.40000   0.65000   0.10000   90.00000   0.00000   0.00100   246  247  248      0
   248   0.80000   0.40000   0.75000   0.10000   90.00000   0.00000   0.00100   247  248  249      0
   249   0.80000   0.40000   0.85000   0.10000   90.00000   0.00000   0.00100   248  249  250      0
   250   0.80000   0.40000   0.95000   0.10000   90.00000   0.00000   0.00100   249  250    0      0
   251   1.00000   0.40000   0.05000   0.10000   90.00000   0.00000   0.00100     0  251  252      0
   252   1.00000   0.40000   0.15000   0.10000   90.00000   0.00000   0.00100   251  252  253      0
   253   1.00000   0.40000   0.25000   0.10000   90.00000   0.00000   0.00100   252  253  254      0
   254   1.00000   0.40000   0.35000   0.10000   90.00000   0.00000   0.00100   253  254  255      0
   255   1.00000   0.40000   0.45000   0.10000   90.00000   0.00000   0.00100   254  255  256      0
   256   1.00000   0.40000   0.55000   0.10000   90.00000   0.00000   0.00100   255  256  257      0
   257   1.00000   0.40000   0.65000   0.10000   90.00000   0.00000   0.00100   256  257  258      0
   258   1.00000   0.40000   0.75000   0.10000   90.00000   0.00000   0.00100   257  258  259      0
   259   1.00000   0.40000   0.85000   0.10000   90.00000   0.00000   0.00100   258  259  260      0
   260   1.00000   0.40000   0.95000   0.10000   90.00000   0.00000   0.00100   259  260    0      0
   261   1.20000   0.40000   0.05000   0.10000   90.00000   0.00000   0.00100     0  261  262      0
   262   1.20000   0.40000   0.15000   0.10000   90.00000   0.00000   0.00100   261  262  263      0
   263   1.20000   0.40000   0.25000   0.10000   90.00000   0.00000   0.00100   262  263  264      0
   264   1.20000   0.40000   0.35000   0.10000   90.00000   0.00000   0.00100   263  264  265      0
   265   1.20000   0.40000   0.45000   0.10000   90.00000   0.00000   0.00100   264  265  266      0
   266   1.20000   0.40000   0.55000   0.10000   90.00000   0.00000   0.00100   265  266  267      0
   267   1.20000   0.40000   0.65000   0.10000   90.00000   0.00000   0.00100   266  267  268      0
   268   1.20000   0.40000   0.75000   0.10000   90.00000   0.00000   0.00100   267  268  269      0
   269   1.20000   0.40000   0.85000   0.10000   90.00000   0.00000   0.00100   268  269  270      0
   270   1.20000   0.40000   0.95000   0.10000   90.00000   0.00000   0.00100   269  270    0      0
   271   1.40000   0.40000   0.05000   0.10000   90.00000   0.00000   0.00100     0  271  272      0
   272   1.40000   0.40000   0.15000   0.10000   90.00000   0.00000   0.00100   271  272  273      0
   273   1.40000   0.40000   0.25000   0.10000   90.00000   0.00000   0.00100   272  273  274      0
   274   1.40000   0.40000   0.35000   0.10000   90.00000   0.00000   0.00100   273  274  275      0
   275   1.40000   0.40000   0.45000   0.10000   90.00000   0.00000   0.00100   274  275  276      0
   276   1.40000   0.40000   0.55000   0.10000   90.00000   0.00000   0.00100   275  276  277      0
   277   1.40000   0.40000   0.65000   0.10000   90.00000   0.00000   0.00100   276  277  278      0
   278   1.40000   0.40000   0.75000   0.10000   90.00000   0.00000   0.00100   277  278  279      0
   279   1.40000   0.40000   0.85000   0.10000   90.00000   0.00000   0.00100   278  279  280      0
   280   1.40000   0.40000   0.95000   0.10000   90.00000   0.00000   0.00100   279  280    0      0
   281   1.60000   0.40000   0.05000   0.10000   90.00000   0.00000   0.00100     0  281  282      0
   282   1.60000   0.40000   0.15000   0.10000   90.00000   0.00000   0.00100   281  282  283      0
   283   1.60000   0.40000   0.25000   0.10000   90.00000   0.00000   0.00100   282  283  284      0
   284   1.60000   0.40000   0.35000   0.10000   90.00000   0.00000   0.00100   283  284  285      0
   285   1.60000   0.40000   0.45000   0.10000   90.00000   0.00000   0.00100   284  285  286      0
   286   1.60000   0.40000   0.55000   0.10000   90.00000   0.00000   0.00100   285  286  287      0
   287   1.60000   0.40000   0.65000   0.10000   90.00000   0.00000   0.00100   286  287  288      0
   288   1.60000   0.40000   0.75000   0.10000   90.00000   0.00000   0.00100   287  288  289      0
   289   1.60000   0.40000   0.85000   0.10000   90.00000   0.00000   0.00100   288  289  290      0
   290   1.60000   0.40000   0.95000   0.10000   90.00000   0.00000   0.00100   289  290    0      0
   291   1.80000   0.40000   0.05000   0.10000   90.00000   0.00000   0.00100     0  291  292      0
   292   1.80000   0.40000   0.15000   0.10000   90.00000   0.00000   0.00100   291  292  293      0
   293   1.80000   0.40000   0.25000   0.10000   90.00000   0.00000   0.00100   292  293  294      0
   294   1.80000   0.40000   0.35000   0.10000   90.00000   0.00000   0.00100   293  294  295      0
   295   1.80000   0.40000   0.45000   0.10000   90.00000   0.00000   0.00100   294  295  296      0
   296   1.80000   0.40000   0.55000   0.10000   90.00000   0.00000   0.00100   295  296  297      0
   297   1.80000   0.40000   0.65000   0.10000   90.00000   0.00000   0.00100   296  297  298      0
   298   1.80000   0.40000   0.75000   0.10000   90.00000   0.00000   0.00100   297  298  299      0
   299   1.80000   0.40000   0.85000   0.10000   90.00000   0.00000   0.00100   298  299  300      0
   300   1.80000   0.40000   0.95000   0.10000   90.00000   0.00000   0.00100   299  300    0      0
   301   0.00000   0.60000   0.05000   0.10000   90.00000   0.00000   0.00100     0  301  302      0
   302   0.00000   0.60000   0.15000   0.10000   90.00000   0.00000   0.00100   301  302  303      0
   303   0.00000   0.60000   0.25000   0.10000   90.00000   0.00000   0.00100   302  303  304      0
   304   0.00000   0.60000   0.35000   0.10000   90.00000   0.00000   0.00100   303  304  305      0
   305   0.00000   0.60000   0.45000   0.10000   90.00000   0.00000   0.00100   304  305  306      0
   306   0.00000   0.60000   0.55000   0.10000   90.00000   0.00000   0.00100   305  306  307      0
   307   0.00000   0.60000   0.65000   0.10000   90.00000   0.00000   0.00100   306  307  308      0
   308   0.00000   0.60000   0.75000   0.10000   90.00000   0.00000   0.00100   307  308  309      0
   309   0.00000   0.60000   0.85000   0.10000   90.00000   0.00000   0.00100   308  309  310      0
   310   0.00000   0.60000   0.95000   0.10000   90.00000   0.00000   0.00100   309  310    0      0
   311   0.20000   0.60000   0.05000   0.10000   90.00000   0.00000   0.00100     0  311  312      0
   312   0.20000   0.60000   0.15000   0.10000   90.00000   0.00000   0.00100   311  312  313      0
   313   0.20000   0.60000   0.25000   0.10000   90.00000   0.00000   0.00100   312  313  314      0
   314   0.20000   0.60000   0.35000   0.10000   90.00000   0.00000   0.00100   313  314  315      0
   315   0.20000   0.60000   0.45000   0.10000   90.00000   0.00000   0.00100   314  315  316      0
   316   0.20000   0.60000   0.55000   0.10000   90.00000   0.00000   0.00100   315  316  317      0
   317   0.20000   0.60000   0.65000   0.10000   90.00000   0.00000   0.00100   316  317  318      0
   318   0.20000   0.60000   0.75000   0.10000   90.00000   0.00000   0.00100   317  318  319      0
   319   0.20000   0.60000   0.85000   0.10000   90.00000   0.00000   0.00100   318  319  320      0
   320   0.20000   0.60000   0.95000   0.10000   90.00000   0.00000   0.00100   319  320    0      0
   321   0.40000   0.60000   0.05000   0.10000   90.00000   0.00000   0.00100     0  321  322      0
   322   0.40000   0.60000   0.15000   0.10000   90.00000   0.00000   0.00100   321  322  323      0
   323   0.40000   0.60000   0.25000   0.10000   90.00000   0.00000   0.00100   322  323  324      0
   324   0.40000   0.60000   0.35000   0.10000   90.00000   0.00000   0.00100   323  324  325      0
   325   0.40000   0.60000   0.45000   0.10000   90.00000   0.00000   0.00100   324  325  326      0
   326   0.40000   0.60000   0.55000   0.10000   90.00000   0.00000   0.00100   325  326  327      0
   327   0.40000   0.60000   0.65000   0.10000   90.00000   0.00000   0.00100   326  327  328      0
   328   0.40000   0.60000   0.75000   0.10000   90.00000   0.00000   0.00100   327  328  329      0
   329   0.40000   0.60000   0.85000   0.10000   90.00000   0.00000   0.00100   328  329  330      0
   330   0.40000   0.60000   0.95000   0.10000   90.00000   0.00000   0.00100   329  330    0      0
   331   0.60000   0.60000   0.05000   0.10000   90.00000   0.00000   0.00100     0  331  332      0
   332   0.60000   0.60000   0.15000   0.10000   90.00000   0.00000   0.00100   331  332  333      0
   333   0.60000   0.60000   0.25000   0.10000   90.00000   0.00000   0.00100   332  333  334      0
   334   0.60000   0.60000   0.35000   0.10000   90.00000   0.00000   0.00100   333  334  335      0
   335   0.60000   0.60000   0.45000   0.10000   90.00000   0.00000   0.00100   334  335  336      0
   336   0.60000   0.60000   0.55000   0.10000   90.00000   0.00000   0.00100   335  336  337      0
   337   0.60000   0.60000   0.65000   0.10000   90.00000   0.00000   0.00100   336  337  338      0
   338   0.60000   0.60000   0.75000   0.10000   90.00000   0.00000   0.00100   337  338  339      0
   339   0.60000   0.60000   0.85000   0.10000   90.00000   0.00000   0.00100   338  339  340      0
   340   0.60000   0.60000   0.95000   0.10000   90.00000   0.00000   0.00100   339  340    0      0
   341   0.80000   0.60000   0.05000   0.10000   90.00000   0.00000   0.00100     0  341  342      0
   342   0.80000   0.60000   0.15000   0.10000   90.00000   0.00000   0.00100   341  342  343      0
   343   0.80000   0.60000   0.25000   0.10000   90.00000   0.00000   0.00100   342  343  344      0
   344   0.80000   0.60000   0.35000   0.10000   90.00000   0.00000   0.00100   343  344  345      0
   345   0.80000   0.60000   0.45000   0.10000   90.00000   0.00000   0.00100   344  345  346      0
   346   0.80000   0.60000   0.55000   0.10000   90.00000   0.00000   0.00100   345  346  347      0
   347   0.80000   0.60000   0.65000   0.10000   90.00000   0.00000   0.00100   346  347  348      0
   348   0.80000   0.60000   0.75000   0.10000   90.00000   0.00000   0.00100   347  348  349      0
   349   0.80000   0.60000   0.85000   0.10000   90.00000   0.00000   0.00100   348  349  350      0
   350   0.80000   0.60000   0.95000   0.10000   90.00000   0.00000   0.00100   349  350    0      0
   351   1.00000   0.60000   0.05000   0.10000   90.00000   0.00000   0.00100     0  351  352      0
   352   1.00000   0.60000   0.15000   0.10000   90.00000   0.00000   0.00100   351  352  353      0
   353   1.00000   0.60000   0.25000   0.10000   90.00000   0.00000   0.00100   352  353  354      0
   354   1.00000   0.60000   0.35000   0.10000   90.00000   0.00000   0.00100   353  354  355      0
   355   1.00000   0.60000   0.45000   0.10000   90.00000   0.00000   0.00100   354  355  356      0
   356   1.00000   0.60000   0.55000   0.10000   90.00000   0.00000   0.00100   355  356  357      0
   357   1.00000   0.60000   0.65000   0.10000   90.00000   0.00000   0.00100   356  357  358      0
   358   1.00000   0.60000   0.75000   0.10000   90.00000   0.00000   0.00100   357  358  359      0
   359   1.00000   0.60000   0.85000   0.10000   90.00000   0.00000   0.00100   358  359  360      0
   360   1.00000   0.60000   0.95000   0.10000   90.00000   0.00000   0.00100   359  360    0      0
   361   1.20000   0.60000   0.05000   0.10000   90.00000   0.00000   0.00100     0  361  362      0
   362   1.20000   0.60000   0.15000   0.10000   90.00000   0.00000   0.00100   361  362  363      0
   363   1.20000   0.60000   0.25000   0.10000   90.00000   0.00000   0.00100   362  363  364      0
   364   1.20000   0.60000   0.35000   0.10000   90.00000   0.00000   0.00100   363  364  365      0
   365   1.20000   0.60000   0.45000   0.10000   90.00000   0.00000   0.00100   364  365  366      0
   366   1.20000   0.60000   0.55000   0.10000   90.00000   0.00000   0.00100   365  366  367      0
   367   1.20000   0.60000   0.65000   0.10000   90.00000   0.00000   0.00100   366  367  368      0
   368   1.20000   0.60000   0.75000   0.10000   90.00000   0.00000   0.00100   367  368  369      0
   369   1.20000   0.60000   0.85000   0.10000   90.00000   0.00000   0.00100   368  369  370      0
   370   1.20000   0.60000   0.95000   0.10000   90.00000   0.00000   0.00100   369  370    0      0
   371   1.40000   0.60000   0.05000   0.10000   90.00000   0.00000   0.00100     0  371  372      0
   372   1.40000   0.60000   0.15000   0.10000   90.00000   0.00000   0.00100   371  372  373      0
   373   1.40000   0.60000   0.25000   0.10000   90.00000   0.00000   0.00100   372  373  374      0
   374   1.40000   0.60000   0.35000   0.10000   90.00000   0.00000   0.00100   373  374  375      0
   375   1.40000   0.60000   0.45000   0.10000   90.00000   0.00000   0.00100   374  375  376      0
   376   1.40000   0.60000   0.55000   0.10000   90.00000   0.00000   0.00100   375  376  377      0
   377   1.40000   0.60000   0.65000   0.10000   90.00000   0.00000   0.00100   376  377  378      0
   378   1.40000   0.60000   0.75000   0.10000   90.00000   0.00000   0.00100   377  378  379      0
   379   1.40000   0.60000   0.85000   0.10000   90.00000   0.00000   0.00100   378  379  380      0
   380   1.40000   0.60000   0.95000   0.10000   90.00000   0.00000   0.00100   379  380    0      0
   381   1.60000   0.60000   0.05000   0.10000   90.00000   0.00000   0.00100     0  381  382      0
   382   1.60000   0.60000   0.15000   0.10000   90.00000   0.00000   0.00100   381  382  383      0
   383   1.60000   0.60000   0.25000   0.10000   90.00000   0.00000   0.00100   382  383  384      0
   384   1.60000   0.60000   0.35000   0.10000   90.00000   0.00000   0.00100   383  384  385      0
   385   1.60000   0.60000   0.45000   0.10000   90.00000   0.00000   0.00100   384  385  386      0
   386   1.60000   0.60000   0.55000   0.10000   90.00000   0.00000   0.00100   385  386  387      0
   387   1.60000   0.60000   0.65000   0.10000   90.00000   0.00000   0.00100   386  387  388      0
   388   1.60000   0.60000   0.75000   0.10000   90.00000   0.00000   0.00100   387  388  389      0
   389   1.60000   0.60000   0.85000   0.10000   90.00000   0.00000   0.00100   388  389  390      0
   390   1.60000   0.60000   0.95000   0.10000   90.00000   0.00000   0.00100   389  390    0      0
   391   1.80000   0.60000   0.05000   0.10000   90.00000   0.00000   0.00100     0  391  392      0
   392   1.80000   0.60000   0.15000   0.10000   90.00000   0.00000   0.00100   391  392  393      0
   393   1.80000   0.60000   0.25000   0.10000   90.00000   0.00000   0.00100   392  393  394      0
   394   1.80000   0.60000   0.35000   0.10000   90.00000   0.00000   0.00100   393  394  395      0
   395   1.80000   0.60000   0.45000   0.10000   90.00000   0.00000   0.00100   394  395  396      0
   396   1.80000   0.60000   0.55000   0.10000   90.00000   0.00000   0.00100   395  396  397      0
   397   1.80000   0.60000   0.65000   0.10000   90.00000   0.00000   0.00100   396  397  398      0
   398   1.80000   0.60000   0.75000   0.10000   90.00000   0.00000   0.00100   397  398  399      0
   399   1.80000   0.60000   0.85000   0.10000   90.00000   0.00000   0.00100   398  399  400      0
   400   1.80000   0.60000   0.95000   0.10000   90.00000   0.00000   0.00100   399  400    0      0
   401   0.00000   0.80000   0.05000   0.10000   90.00000   0.00000   0.00100     0  401  402      0
   402   0.00000   0.80000   0.15000   0.10000   90.00000   0.00000   0.00100   401  402  403      0
   403   0.00000   0.80000   0.25000   0.10000   90.00000   0.00000   0.00100   402  403  404      0
   404   0.00000   0.80000   0.35000   0.10000   90.00000   0.00000   0.00100   403  404  405      0
   405   0.00000   0.80000   0.45000   0.10000   90.00000   0.00000   0.00100   404  405  406      0
   406   0.00000   0.80000   0.55000   0.10000   90.00000   0.00000   0.00100   405  406  407      0
   407   0.00000   0.80000   0.65000   0.10000   90.00000   0.00000   0.00100   406  407  408      0
   408   0.00000   0.80000   0.75000   0.10000   90.00000   0.00000   0.00100   407  408  409      0
   409   0.00000   0.80000   0.85000   0.10000   90.00000   0.00000   0.00100   408  409  410      0
   410   0.00000   0.80000   0.95000   0.10000   90.00000   0.00000   0.00100   409  410    0      0
   411   0.20000   0.80000   0.05000   0.10000   90.00000   0.00000   0.00100     0  411  412      0
   412   0.20000   0.80000   0.15000   0.10000   90.00000   0.00000   0.00100   411  412  413      0
   413   0.20000   0.80000   0.25000   0.10000   90.00000   0.00000   0.00100   412  413  414      0
   414   0.20000   0.80000   0.35000   0.10000   90.00000   0.00000   0.00100   413  414  415      0
   415   0.20000   0.80000   0.45000   0.10000   90.00000   0.00000   0.00100   414  415  416      0
   416   0.20000   0.80000   0.55000   0.10000   90.00000   0.00000   0.00100   415  416  417      0
   417   0.20000   0.80000   0.65000   0.10000   90.00000   0.00000   0.00100   416  417  418      0
   418   0.20000   0.80000   0.75000   0.10000   90.00000   0.00000   0.00100   417  418  419      0
   419   0.20000   0.80000   0.85000   0.10000   90.00000   0.00000   0.00100   418  419  420      0
   420   0.20000   0.80000   0.95000   0.10000   90.00000   0.00000   0.00100   419  420    0      0
   421   0.40000   0.80000   0.05000   0.10000   90.00000   0.00000   0.00100     0  421  422      0
   422   0.40000   0.80000   0.15000   0.10000   90.00000   0.00000   0.00100   421  422  423      0
   423   0.40000   0.80000   0.25000   0.10000   90.00000   0.00000   0.00100   422  423  424      0
   424   0.40000   0.80000   0.35000   0.10000   90.00000   0.00000   0.00100   423  424  425      0
   425   0.40000   0.80000   0.45000   0.10000   90.00000   0.00000   0.00100   424  425  426      0
   426   0.40000   0.80000   0.55000   0.10000   90.00000   0.00000   0.00100   425  426  427      0
   427   0.40000   0.80000   0.65000   0.10000   90.00000   0.00000   0.00100   426  427  428      0
   428   0.40000   0.80000   0.75000   0.10000   90.00000   0.00000   0.00100   427  428  429      0
   429   0.40000   0.80000   0.85000   0.10000   90.00000   0.00000   0.00100   428  429  430      0
   430   0.40000   0.80000   0.95000   0.10000   90.00000   0.00000   0.00100   429  430    0      0
   431   0.60000   0.80000   0.05000   0.10000   90.00000   0.00000   0.00100     0  431  432      0
   432   0.60000   0.80000   0.15000   0.10000   90.00000   0.00000   0.00100   431  432  433      0
   433   0.60000   0.80000   0.25000   0.10000   90.00000   0.00000   0.00100   432  433  434      0
   434   0.60000   0.80000   0.35000   0.10000   90.00000   0.00000   0.00100   433  434  435      0
   435   0.60000   0.80000   0.45000   0.10000   90.00000   0.00000   0.00100   434  435  436      0
   436   0.60000   0.80000   0.55000   0.10000   90.00000   0.00000   0.00100   435  436  437      0
   437   0.60000   0.80000   0.65000   0.10000   90.00000   0.00000   0.00100   436  437  438      0
   438   0.60000   0.80000   0.75000   0.10000   90.00000   0.00000   0.00100   437  438  439      0
   439   0.60000   0.80000   0.85000   0.10000   90.00000   0.00000   0.00100   438  439  440      0
   440   0.60000   0.80000   0.95000   0.10000   90.00000   0.00000   0.00100   439  440    0      0
   441   0.80000   0.80000   0.05000   0.10000   90.00000   0.00000   0.00100     0  441  442      0
   442   0.80000   0.80000   0.15000   0.10000   90.00000   0.00000   0.00100   441  442  443      0
   443   0.80000   0.80000   0.25000   0.10000   90.00000   0.00000   0.00100   442  443  444      0
   444   0.80000   0.80000   0.35000   0.10000   90.00000   0.00000   0.00100   443  444  445      0
   445   0.80000   0.80000   0.45000   0.10000   90.00000   0.00000   0.00100   444  445  446      0
   446   0.80000   0.80000   0.55000   0.10000   90.00000   0.00000   0.00100   445  446  447      0
   447   0.80000   0.80000   0.65000   0.10000   90.00000   0.00000   0.00100   446  447  448      0
   448   0.80000   0.80000   0.75000   0.10000   90.00000   0.00000   0.00100   447  448  449      0
   449   0.80000   0.80000   0.85000   0.10000   90.00000   0.00000   0.00100   448  449  450      0
   450   0.80000   0.80000   0.95000   0.10000   90.00000   0.00000   0.00100   449  450    0      0
   451   1.00000   0.80000   0.05000   0.10000   90.00000   0.00000   0.00100     0  451  452      0
   452   1.00000   0.80000   0.15000   0.10000   90.00000   0.00000   0.00100   451  452  453      0
   453   1.00000   0.80000   0.25000   0.10000   90.00000   0.00000   0.00100   452  453  454      0
   454   1.00000   0.80000   0.35000   0.10000   90.00000   0.00000   0.00100   453  454  455      0
   455   1.00000   0.80000   0.45000   0.10000   90.00000   0.00000   0.00100   454  455  456      0
   456   1.00000   0.80000   0.55000   0.10000   90.00000   0.00000   0.00100   455  456  457      0
   457   1.00000   0.80000   0.65000   0.10000   90.00000   0.00000   0.00100   456  457  458      0
   458   1.00000   0.80000   0.75000   0.10000   90.00000   0.00000   0.00100   457  458  459      0
   459   1.00000   0.80000   0.85000   0.10000   90.00000   0.00000   0.00100   458  459  460      0
   460   1.00000   0.80000   0.95000   0.10000   90.00000   0.00000   0.00100   459  460    0      0
   461   1.20000   0.80000   0.05000   0.10000   90.00000   0.00000   0.00100     0  461  462      0
   462   1.20000   0.80000   0.15000   0.10000   90.00000   0.00000   0.00100   461  462  463      0
   463   1.20000   0.80000   0.25000   0.10000   90.00000   0.00000   0.00100   462  463  464      0
   464   1.20000   0.80000   0.35000   0.10000   90.00000   0.00000   0.00100   463  464  465      0
   465   1.20000   0.80000   0.45000   0.10000   90.00000   0.00000   0.00100   464  465  466      0
   466   1.20000   0.80000   0.55000   0.10000   90.00000   0.00000   0.00100   465  466  467      0
   467   1.20000   0.80000   0.65000   0.10000   90.00000   0.00000   0.00100   466  467  468      0
   468   1.20000   0.80000   0.75000   0.10000   90.00000   0.00000   0.00100   467  468  469      0
   469   1.20000   0.80000   0.85000   0.10000   90.00000   0.00000   0.00100   468  469  470      0
   470   1.20000   0.80000   0.95000   0.10000   90.00000   0.00000   0.00100   469  470    0      0
   471   1.40000   0.80000   0.05000   0.10000   90.00000   0.00000   0.00100     0  471  472      0
   472   1.40000   0.80000   0.15000   0.10000   90.00000   0.00000   0.00100   471  472  473      0
   473   1.40000   0.80000   0.25000   0.10000   90.00000   0.00000   0.00100   472  473  474      0
   474   1.40000   0.80000   0.35000   0.10000   90.00000   0.00000   0.00100   473  474  475      0
   475   1.40000   0.80000   0.45000   0.10000   90.00000   0.00000   0.00100   474  475  476      0
   476   1.40000   0.80000   0.55000   0.10000   90.00000   0.00000   0.00100   475  476  477      0
   477   1.40000   0.80000   0.65000   0.10000   90.00000   0.00000   0.00100   476  477  478      0
   478   1.40000   0.80000   0.75000   0.10000   90.00000   0.00000   0.00100   477  478  479      0
   479   1.40000   0.80000   0.85000   0.10000   90.00000   0.00000   0.00100   478  479  480      0
   480   1.40000   0.80000   0.95000   0.10000   90.00000   0.00000   0.00100   479  480    0      0
   481   1.60000   0.80000   0.05000   0.10000   90.00000   0.00000   0.00100     0  481  482      0
   482   1.60000   0.80000   0.15000   0.10000   90.00000   0.00000   0.00100   481  482  483      0
   483   1.60000   0.80000   0.25000   0.10000   90.00000   0.00000   0.00100   482  483  484      0
   484   1.60000   0.80000   0.35000   0.10000   90.00000   0.00000   0.00100   483  484  485      0
   485   1.60000   0.80000   0.45000   0.10000   90.00000   0.00000   0.00100   484  485  486      0
   486   1.60000   0.80000   0.55000   0.10000   90.00000   0.00000   0.00100   485  486  487      0
   487   1.60000   0.80000   0.65000   0.10000   90.00000   0.00000   0.00100   486  487  488      0
   488   1.60000   0.80000   0.75000   0.10000   90.00000   0.00000   0.00100   487  488  489      0
   489   1.60000   0.80000   0.85000   0.10000   90.00000   0.00000   0.00100   488  489  490      0
   490   1.60000   0.80000   0.95000   0.10000   90.00000   0.00000   0.00100   489  490    0      0
   491   1.80000   0.80000   0.05000   0.10000   90.00000   0.00000   0.00100     0  491  492      0
   492   1.80000   0.80000   0.15000   0.10000   90.00000   0.00000   0.00100   491  492  493      0
   493   1.80000   0.80000   0.25000   0.10000   90.00000   0.00000   0.00100   492  493  494      0
   494   1.80000   0.80000   0.35000   0.10000   90.00000   0.00000   0.00100   493  494  495      0
   495   1.80000   0.80000   0.45000   0.10000   90.00000   0.00000   0.00100   494  495  496      0
   496   1.80000   0.80000   0.55000   0.10000   90.00000   0.00000   0.00100   495  496  497      0
   497   1.80000   0.80000   0.65000   0.10000   90.00000   0.00000   0.00100   496  497  498      0
   498   1.80000   0.80000   0.75000   0.10000   90.00000   0.00000   0.00100   497  498  499      0
   499   1.80000   0.80000   0.85000   0.10000   90.00000   0.00000   0.00100   498  499  500      0
   500   1.80000   0.80000   0.95000   0.10000   90.00000   0.00000   0.00100   499  500    0      0
   501   0.00000   1.00000   0.05000   0.10000   90.00000   0.00000   0.00100     0  501  502      0
   502   0.00000   1.00000   0.15000   0.10000   90.00000   0.00000   0.00100   501  502  503      0
   503   0.00000   1.00000   0.25000   0.10000   90.00000   0.00000   0.00100   502  503  504      0
   504   0.00000   1.00000   0.35000   0.10000   90.00000   0.00000   0.00100   503  504  505      0
   505   0.00000   1.00000   0.45000   0.10000   90.00000   0.00000   0.00100   504  505  506      0
   506   0.00000   1.00000   0.55000   0.10000   90.00000   0.00000   0.00100   505  506  507      0
   507   0.00000   1.00000   0.65000   0.10000   90.00000   0.00000   0.00100   506  507  508      0
   508   0.00000   1.00000   0.75000   0.10000   90.00000   0.00000   0.00100   507  508  509      0
   509   0.00000   1.00000   0.85000   0.10000   90.00000   0.00000   0.00100   508  509  510      0
   510   0.00000   1.00000   0.95000   0.10000   90.00000   0.00000   0.00100   509  510    0      0
   511   0.20000   1.00000   0.05000   0.10000   90.00000   0.00000   0.00100     0  511  512      0
   512   0.20000   1.00000   0.15000   0.10000   90.00000   0.00000   0.00100   511  512  513      0
   513   0.20000   1.00000   0.25000   0.10000   90.00000   0.00000   0.00100   512  513  514      0
   514   0.20000   1.00000   0.35000   0.10000   90.00000   0.00000   0.00100   513  514  515      0
   515   0.20000   1.00000   0.45000   0.10000   90.00000   0.00000   0.00100   514  515  516      0
   516   0.20000   1.00000   0.55000   0.10000   90.00000   0.00000   0.00100   515  516  517      0
   517   0.20000   1.00000   0.65000   0.10000   90.00000   0.00000   0.00100   516  517  518      0
   518   0.20000   1.00000   0.75000   0.10000   90.00000   0.00000   0.00100   517  518  519      0
   519   0.20000   1.00000   0.85000   0.10000   90.00000   0.00000   0.00100   518  519  520      0
   520   0.20000   1.00000   0.95000   0.10000   90.00000   0.00000   0.00100   519  520    0      0
   521   0.40000   1.00000   0.05000   0.10000   90.00000   0.00000   0.00100     0  521  522      0
   522   0.40000   1.00000   0.15000   0.10000   90.00000   0.00000   0.00100   521  522  523      0
   523   0.40000   1.00000   0.25000   0.10000   90.00000   0.00000   0.00100   522  523  524      0
   524   0.40000   1.00000   0.35000   0.10000   90.00000   0.00000   0.00100   523  524  525      0
   525   0.40000   1.00000   0.45000   0.10000   90.00000   0.00000   0.00100   524  525  526      0
   526   0.40000   1.00000   0.55000   0.10000   90.00000   0.00000   0.00100   525  526  527      0
   527   0.40000   1.00000   0.65000   0.10000   90.00000   0.00000   0.00100   526  527  528      0
   528   0.40000   1.00000   0.75000   0.10000   90.00000   0.00000   0.00100   527  528  529      0
   529   0.40000   1.00000   0.85000   0.10000   90.00000   0.00000   0.00100   528  529  530      0
   530   0.40000   1.00000   0.95000   0.10000   90.00000   0.00000   0.00100   529  530    0      0
   531   0.60000   1.00000   0.05000   0.10000   90.00000   0.00000   0.00100     0  531  532      0
   532   0.60000   1.00000   0.15000   0.10000   90.00000   0.00000   0.00100   531  532  533      0
   533   0.60000   1.00000   0.25000   0.10000   90.00000   0.00000   0.00100   532  533  534      0
   534   0.60000   1.00000   0.35000   0.10000   90.00000   0.00000   0.00100   533  534  535      0
   535   0.60000   1.00000   0.45000   0.10000   90.00000   0.00000   0.00100   534  535  536      0
   536   0.60000   1.00000   0.55000   0.10000   90.00000   0.00000   0.00100   535  536  537      0
   537   0.60000   1.00000   0.65000   0.10000   90.00000   0.00000   0.00100   536  537  538      0
   538   0.60000   1.00000   0.75000   0.10000   90.00000   0.00000   0.00100   537  538  539      0
   539   0.60000   1.00000   0.85000   0.10000   90.00000   0.00000   0.00100   538  539  540      0
   540   0.60000   1.00000   0.95000   0.10000   90.00000   0.00000   0.00100   539  540    0      0
   541   0.80000   1.00000   0.05000   0.10000   90.00000   0.00000   0.00100     0  541  542      0
   542   0.80000   1.00000   0.15000   0.10000   90.00000   0.00000   0.00100   541  542  543      0
   543   0.80000   1.00000   0.25000   0.10000   90.00000   0.00000   0.00100   542  543  544      0
   544   0.80000   1.00000   0.35000   0.10000   90.00000   0.00000   0.00100   543  544  545      0
   545   0.80000   1.00000   0.45000   0.10000   90.00000   0.00000   0.00100   544  545  546      0
   546   0.80000   1.00000   0.55000   0.10000   90.00000   0.00000   0.00100   545  546  547      0
   547   0.80000   1.00000   0.65000   0.10000   90.00000   0.00000   0.00100   546  547  548      0
   548   0.80000   1.00000   0.75000   0.10000   90.00000   0.00000   0.00100   547  548  549      0
   549   0.80000   1.00000   0.85000   0.10000   90.00000   0.00000   0.00100   548  549  550      0
   550   0.80000   1.00000   0.95000   0.10000   90.00000   0.00000   0.00100   549  550    0      0
   551   1.00000   1.00000   0.05000   0.10000   90.00000   0.00000   0.00100     0  551  552      0
   552   1.00000   1.00000   0.15000   0.10000   90.00000   0.00000   0.00100   551  552  553      0
   553   1.00000   1.00000   0.25000   0.10000   90.00000   0.00000   0.00100   552  553  554      0
   554   1.00000   1.00000   0.35000   0.10000   90.00000   0.00000   0.00100   553  554  555      0
   555   1.00000   1.00000   0.45000   0.10000   90.00000   0.00000   0.00100   554  555  556      0
   556   1.00000   1.00000   0.55000   0.10000   90.00000   0.00000   0.00100   555  556  557      0
   557   1.00000   1.00000   0.65000   0.10000   90.00000   0.00000   0.00100   556  557  558      0
   558   1.00000   1.00000   0.75000   0.10000   90.00000   0.00000   0.00100   557  558  559      0
   559   1.00000   1.00000   0.85000   0.10000   90.00000   0.00000   0.00100   558  559  560      0
   560   1.00000   1.00000   0.95000   0.10000   90.00000   0.00000   0.00100   559  560    0      0
   561   1.20000   1.00000   0.05000   0.10000   90.00000   0.00000   0.00100     0  561  562      0
   562   1.20000   1.00000   0.15000   0.10000   90.00000   0.00000   0.00100   561  562  563      0
   563   1.20000   1.00000   0.25000   0.10000   90.00000   0.00000   0.00100   562  563  564      0
   564   1.20000   1.00000   0.35000   0.10000   90.00000   0.00000   0.00100   563  564  565      0
   565   1.20000   1.00000   0.45000   0.10000   90.00000   0.00000   0.00100   564  565  566      0
   566   1.20000   1.00000   0.55000   0.10000   90.00000   0.00000   0.00100   565  566  567      0
   567   1.20000   1.00000   0.65000   0.10000   90.00000   0.00000   0.00100   566  567  568      0
   568   1.20000   1.00000   0.75000   0.10000   90.00000   0.00000   0.00100   567  568  569      0
   569   1.20000   1.00000   0.85000   0.10000   90.00000   0.00000   0.00100   568  569  570      0
   570   1.20000   1.00000   0.95000   0.10000   90.00000   0.00000   0.00100   569  570    0      0
   571   1.40000   1.00000   0.05000   0.10000   90.00000   0.00000   0.00100     0  571  572      0
   572   1.40000   1.00000   0.15000   0.10000   90.00000   0.00000   0.00100   571  572  573      0
   573   1.40000   1.00000   0.25000   0.10000   90.00000   0.00000   0.00100   572  573  574      0
   574   1.40000   1.00000   0.35000   0.10000   90.00000   0.00000   0.00100   573  574  575      0
   575   1.40000   1.00000   0.45000   0.10000   90.00000   0.00000   0.00100   574  575  576      0
   576   1.40000   1.00000   0.55000   0.10000   90.00000   0.00000   0.00100   575  576  577      0
   577   1.40000   1.00000   0.65000   0.10000   90.00000   0.00000   0.00100   576  577  578      0
   578   1.40000   1.00000   0.75000   0.10000   90.00000   0.00000   0.00100   577  578  579      0
   579   1.40000   1.00000   0.85000   0.10000   90.00000   0.00000   0.00100   578  579  580      0
   580   1.40000   1.00000   0.95000   0.10000   90.00000   0.00000   0.00100   579  580    0      0
   581   1.60000   1.00000   0.05000   0.10000   90.00000   0.00000   0.00100     0  581  582      0
   582   1.60000   1.00000   0.15000   0.10000   90.00000   0.00000   0.00100   581  582  583      0
   583   1.60000   1.00000   0.25000   0.10000   90.00000   0.00000   0.00100   582  583  584      0
   584   1.60000   1.00000   0.35000   0.10000   90.00000   0.00000   0.00100   583  584  585      0
   585   1.60000   1.00000   0.45000   0.10000   90.00000   0.00000   0.00100   584  585  586      0
   586   1.60000   1.00000   0.55000   0.10000   90.00000   0.00000   0.00100   585  586  587      0
   587   1.60000   1.00000   0.65000   0.10000   90.00000   0.00000   0.00100   586  587  588      0
   588   1.60000   1.00000   0.75000   0.10000   90.00000   0.00000   0.00100   587  588  589      0
   589   1.60000   1.00000   0.85000   0.10000   90.00000   0.00000   0.00100   588  589  590      0
   590   1.60000   1.00000   0.95000   0.10000   90.00000   0.00000   0.00100   589  590    0      0
   591   1.80000   1.00000   0.05000   0.10000   90.00000   0.00000   0.00100     0  591  592      0
   592   1.80000   1.00000   0.15000   0.10000   90.00000   0.00000   0.00100   591  592  593      0
   593   1.80000   1.00000   0.25000   0.10000   90.00000   0.00000   0.00100   592  593  594      0
   594   1.80000   1.00000   0.35000   0.10000   90.00000   0.00000   0.00100   593  594  595      0
   595   1.80000   1.00000   0.45000   0.10000   90.00000   0.00000   0.00100   594  595  596      0
   596   1.80000   1.00000   0.55000   0.10000   90.00000   0.00000   0.00100   595  596  597      0
   597   1.80000   1.00000   0.65000   0.10000   90.00000   0.00000   0.00100   596  597  598      0
   598   1.80000   1.00000   0.75000   0.10000   90.00000   0.00000   0.00100   597  598  599      0
   599   1.80000   1.00000   0.85000   0.10000   90.00000   0.00000   0.00100   598  599  600      0
   600   1.80000   1.00000   0.95000   0.10000   90.00000   0.00000   0.00100   599  600    0      0
   601   0.00000   1.20000   0.05000   0.10000   90.00000   0.00000   0.00100     0  601  602      0
   602   0.00000   1.20000   0.15000   0.10000   90.00000   0.00000   0.00100   601  602  603      0
   603   0.00000   1.20000   0.25000   0.10000   90.00000   0.00000   0.00100   602  603  604      0
   604   0.00000   1.20000   0.35000   0.10000   90.00000   0.00000   0.00100   603  604  605      0
   605   0.00000   1.20000   0.45000   0.10000   90.00000   0.00000   0.00100   604  605  606      0
   606   0.00000   1.20000   0.55000   0.10000   90.00000   0.00000   0.00100   605  606  607      0
   607   0.00000   1.20000   0.65000   0.10000   90.00000   0.00000   0.00100   606  607  608      0
   608   0.00000   1.20000   0.75000   0.10000   90.00000   0.00000   0.00100   607  608  609      0
   609   0.00000   1.20000   0.85000   0.10000   90.00000   0.00000   0.00100   608  609  610      0
   610   0.00000   1.20000   0.95000   0.10000   90.00000   0.00000   0.00100   609  610    0      0
   611   0.20000   1.20000   0.05000   0.10000   90.00000   0.00000   0.00100     0  611  612      0
   612   0.20000   1.20000   0.15000   0.10000   90.00000   0.00000   0.00100   611  612  613      0
   613   0.20000   1.20000   0.25000   0.10000   90.00000   0.00000   0.00100   612  613  614      0
   614   0.20000   1.20000   0.35000   0.10000   90.00000   0.00000   0.00100   613  614  615      0
   615   0.20000   1.20000   0.45000   0.10000   90.00000   0.00000   0.00100   614  615  616      0
   616   0.20000   1.20000   0.55000   0.10000   90.00000   0.00000   0.00100   615  616  617      0
   617   0.20000   1.20000   0.65000   0.10000   90.00000   0.00000   0.00100   616  617  618      0
   618   0.20000   1.20000   0.75000   0.10000   90.00000   0.00000   0.00100   617  618  619      0
   619   0.20000   1.20000   0.85000   0.10000   90.00000   0.00000   0.00100   618  619  620      0
   620   0.20000   1.20000   0.95000   0.10000   90.00000   0.00000   0.00100   619  620    0      0
   621   0.40000   1.20000   0.05000   0.10000   90.00000   0.00000   0.00100     0  621  622      0
   622   0.40000   1.20000   0.15000   0.10000   90.00000   0.00000   0.00100   621  622  623      0
   623   0.40000   1.20000   0.25000   0.10000   90.00000   0.00000   0.00100   622  623  624      0
   624   0.40000   1.20000   0.35000   0.10000   90.00000   0.00000   0.00100   623  624  625      0
   625   0.40000   1.20000   0.45000   0.10000   90.00000   0.00000   0.00100   624  625  626      0
   626   0.40000   1.20000   0.55000   0.10000   90.00000   0.00000   0.00100   625  626  627      0
   627   0.40000   1.20000   0.65000   0.10000   90.00000   0.00000   0.00100   626  627  628      0
   628   0.40000   1.20000   0.75000   0.10000   90.00000   0.00000   0.00100   627  628  629      0
   629   0.40000   1.20000   0.85000   0.10000   90.00000   0.00000   0.00100   628  629  630      0
   630   0.40000   1.20000   0.95000   0.10000   90.00000   0.00000   0.00100   629  630    0      0
   631   0.60000   1.20000   0.05000   0.10000   90.00000   0.00000   0.00100     0  631  632      0
   632   0.60000   1.20000   0.15000   0.10000   90.00000   0.00000   0.00100   631  632  633      0
   633   0.60000   1.20000   0.25000   0.10000   90.00000   0.00000   0.00100   632  633  634      0
   634   0.60000   1.20000   0.35000   0.10000   90.00000   0.00000   0.00100   633  634  635      0
   635   0.60000   1.20000   0.45000   0.10000   90.00000   0.00000   0.00100   634  635  636      0
   636   0.60000   1.20000   0.55000   0.10000   90.00000   0.00000   0.00100   635  636  637      0
   637   0.60000   1.20000   0.65000   0.10000   90.00000   0.00000   0.00100   636  637  638      0
   638   0.60000   1.20000   0.75000   0.10000   90.00000   0.00000   0.00100   637  638  639      0
   639   0.60000   1.20000   0.85000   0.10000   90.00000   0.00000   0.00100   638  639  640      0
   640   0.60000   1.20000   0.95000   0.10000   90.00000   0.00000   0.00100   639  640    0      0
   641   0.80000   1.20000   0.05000   0.10000   90.00000   0.00000   0.00100     0  641  642      0
   642   0.80000   1.20000   0.15000   0.10000   90.00000   0.00000   0.00100   641  642  643      0
   643   0.80000   1.20000   0.25000   0.10000   90.00000   0.00000   0.00100   642  643  644      0
   644   0.80000   1.20000   0.35000   0.10000   90.00000   0.00000   0.00100   643  644  645      0
   645   0.80000   1.20000   0.45000   0.10000   90.00000   0.00000   0.00100   644  645  646      0
   646   0.80000   1.20000   0.55000   0.10000   90.00000   0.00000   0.00100   645  646  647      0
   647   0.80000   1.20000   0.65000   0.10000   90.00000   0.00000   0.00100   646  647  648      0
   648   0.80000   1.20000   0.75000   0.10000   90.00000   0.00000   0.00100   647  648  649      0
   649   0.80000   1.20000   0.85000   0.10000   90.00000   0.00000   0.00100   648  649  650      0
   650   0.80000   1.20000   0.95000   0.10000   90.00000   0.00000   0.00100   649  650    0      0
   651   1.00000   1.20000   0.05000   0.10000   90.00000   0.00000   0.00100     0  651  652      0
   652   1.00000   1.20000   0.15000   0.10000   90.00000   0.00000   0.00100   651  652  653      0
   653   1.00000   1.20000   0.25000   0.10000   90.00000   0.00000   0.00100   652  653  654      0
   654   1.00000   1.20000   0.35000   0.10000   90.00000   0.00000   0.00100   653  654  655      0
   655   1.00000   1.20000   0.45000   0.10000   90.00000   0.00000   0.00100   654  655  656      0
   656   1.00000   1.20000   0.55000   0.10000   90.00000   0.00000   0.00100   655  656  657      0
   657   1.00000   1.20000   0.65000   0.10000   90.00000   0.00000   0.00100   656  657  658      0
   658   1.00000   1.20000   0.75000   0.10000   90.00000   0.00000   0.00100   657  658  659      0
   659   1.00000   1.20000   0.85000   0.10000   90.00000   0.00000   0.00100   658  659  660      0
   660   1.00000   1.20000   0.95000   0.10000   90.00000   0.00000   0.00100   659  660    0      0
   661   1.20000   1.20000   0.05000   0.10000   90.00000   0.00000   0.00100     0  661  662      0
   662   1.20000   1.20000   0.15000   0.10000   90.00000   0.00000   0.00100   661  662  663      0
   663   1.20000   1.20000   0.25000   0.10000   90.00000   0.00000   0.00100   662  663  664      0
   664   1.20000   1.20000   0.35000   0.10000   90.00000   0.00000   0.00100   663  664  665      0
   665   1.20000   1.20000   0.45000   0.10000   90.00000   0.00000   0.00100   664  665  666      0
   666   1.20000   1.20000   0.55000   0.10000   90.00000   0.00000   0.00100   665  666  667      0
   667   1.20000   1.20000   0.65000   0.10000   90.00000   0.00000   0.00100   666  667  668      0
   668   1.20000   1.20000   0.75000   0.10000   90.00000   0.00000   0.00100   667  668  669      0
   669   1.20000   1.20000   0.85000   0.10000   90.00000   0.00000   0.00100   668  669  670      0
   670   1.20000   1.20000   0.95000   0.10000   90.00000   0.00000   0.00100   669  670    0      0
   671   1.40000   1.20000   0.05000   0.10000   90.00000   0.00000   0.00100     0  671  672      0
   672   1.40000   1.20000   0.15000   0.10000   90.00000   0.00000   0.00100   671  672  673      0
   673   1.40000   1.20000   0.25000   0.10000   90.00000   0.00000   0.00100   672  673  674      0
   674   1.40000   1.20000   0.35000   0.10000   90.00000   0.00000   0.00100   673  674  675      0
   675   1.40000   1.20000   0.45000   0.10000   90.00000   0.00000   0.00100   674  675  676      0
   676   1.40000   1.20000   0.55000   0.10000   90.00000   0.00000   0.00100   675  676  677      0
   677   1.40000   1.20000   0.65000   0.10000   90.00000   0.00000   0.00100   676  677  678      0
   678   1.40000   1.20000   0.75000   0.10000   90.00000   0.00000   0.00100   677  678  679      0
   679   1.40000   1.20000   0.85000   0.10000   90.00000   0.00000   0.00100   678  679  680      0
   680   1.40000   1.20000   0.95000   0.10000   90.00000   0.00000   0.00100   679  680    0      0
   681   1.60000   1.20000   0.05000   0.10000   90.00000   0.00000   0.00100     0  681  682      0
   682   1.60000   1.20000   0.15000   0.10000   90.00000   0.00000   0.00100   681  682  683      0
   683   1.60000   1.20000   0.25000   0.10000   90.00000   0.00000   0.00100   682  683  684      0
   684   1.60000   1.20000   0.35000   0.10000   90.00000   0.00000   0.00100   683  684  685      0
   685   1.60000   1.20000   0.45000   0.10000   90.00000   0.00000   0.00100   684  685  686      0
   686   1.60000   1.20000   0.55000   0.10000   90.00000   0.00000   0.00100   685  686  687      0
   687   1.60000   1.20000   0.65000   0.10000   90.00000   0.00000   0.00100   686  687  688      0
   688   1.60000   1.20000   0.75000   0.10000   90.00000   0.00000   0.00100   687  688  689      0
   689   1.60000   1.20000   0.85000   0.10000   90.00000   0.00000   0.00100   688  689  690      0
   690   1.60000   1.20000   0.95000   0.10000   90.00000   0.00000   0.00100   689  690    0      0
   691   1.80000   1.20000   0.05000   0.10000   90.00000   0.00000   0.00100     0  691  692      0
   692   1.80000   1.20000   0.15000   0.10000   90.00000   0.00000   0.00100   691  692  693      0
   693   1.80000   1.20000   0.25000   0.10000   90.00000   0.00000   0.00100   692  693  694      0
   694   1.80000   1.20000   0.35000   0.10000   90.00000   0.00000   0.00100   693  694  695      0
   695   1.80000   1.20000   0.45000   0.10000   90.00000   0.00000   0.00100   694  695  696      0
   696   1.80000   1.20000   0.55000   0.10000   90.00000   0.00000   0.00100   695  696  697      0
   697   1.80000   1.20000   0.65000   0.10000   90.00000   0.00000   0.00100   696  697  698      0
   698   1.80000   1.20000   0.75000   0.10000   90.00000   0.00000   0.00100   697  698  699      0
   699   1.80000   1.20000   0.85000   0.10000   90.00000   0.00000   0.00100   698  699  700      0
   700   1.80000   1.20000   0.95000   0.10000   90.00000   0.00000   0.00100   699  700    0      0
   701   0.00000   1.40000   0.05000   0.10000   90.00000   0.00000   0.00100     0  701  702      0
   702   0.00000   1.40000   0.15000   0.10000   90.00000   0.00000   0.00100   701  702  703      0
   703   0.00000   1.40000   0.25000   0.10000   90.00000   0.00000   0.00100   702  703  704      0
   704   0.00000   1.40000   0.35000   0.10000   90.00000   0.00000   0.00100   703  704  705      0
   705   0.00000   1.40000   0.45000   0.10000   90.00000   0.00000   0.00100   704  705  706      0
   706   0.00000   1.40000   0.55000   0.10000   90.00000   0.00000   0.00100   705  706  707      0
   707   0.00000   1.40000   0.65000   0.10000   90.00000   0.00000   0.00100   706  707  708      0
   708   0.00000   1.40000   0.75000   0.10000   90.00000   0.00000   0.00100   707  708  709      0
   709   0.00000   1.40000   0.85000   0.10000   90.00000   0.00000   0.00100   708  709  710      0
   710   0.00000   1.40000   0.95000   0.10000   90.00000   0.00000   0.00100   709  710    0      0
   711   0.20000   1.40000   0.05000   0.10000   90.00000   0.00000   0.00100     0  711  712      0
   712   0.20000   1.40000   0.15000   0.10000   90.00000   0.00000   0.00100   711  712  713      0
   713   0.20000   1.40000   0.25000   0.10000   90.00000   0.00000   0.00100   712  713  714      0
   714   0.20000   1.40000   0.35000   0.10000   90.00000   0.00000   0.00100   713  714  715      0
   715   0.20000   1.40000   0.45000   0.10000   90.00000   0.00000   0.00100   714  715  716      0
   716   0.20000   1.40000   0.55000   0.10000   90.00000   0.00000   0.00100   715  716  717      0
   717   0.20000   1.40000   0.65000   0.10000   90.00000   0.00000   0.00100   716  717  718      0
   718   0.20000   1.40000   0.75000   0.10000   90.00000   0.00000   0.00100   717  718  719      0
   719   0.20000   1.40000   0.85000   0.10000   90.00000   0.00000   0.00100   718  719  720      0
   720   0.20000   1.40000   0.95000   0.10000   90.00000   0.00000   0.00100   719  720    0      0
   721   0.40000   1.40000   0.05000   0.10000   90.00000   0.00000   0.00100     0  721  722      0
   722   0.40000   1.40000   0.15000   0.10000   90.00000   0.00000   0.00100   721  722  723      0
   723   0.40000   1.40000   0.25000   0.10000   90.00000   0.00000   0.00100   722  723  724      0
   724   0.40000   1.40000   0.35000   0.10000   90.00000   0.00000   0.00100   723  724  725      0
   725   0.40000   1.40000   0.45000   0.10000   90.00000   0.00000   0.00100   724  725  726      0
   726   0.40000   1.40000   0.55000   0.10000   90.00000   0.00000   0.00100   725  726  727      0
   727   0.40000   1.40000   0.65000   0.10000   90.00000   0.00000   0.00100   726  727  728      0
   728   0.40000   1.40000   0.75000   0.10000   90.00000   0.00000   0.00100   727  728  729      0
   729   0.40000   1.40000   0.85000   0.10000   90.00000   0.00000   0.00100   728  729  730      0
   730   0.40000   1.40000   0.95000   0.10000   90.00000   0.00000   0.00100   729  730    0      0
   731   0.60000   1.40000   0.05000   0.10000   90.00000   0.00000   0.00100     0  731  732      0
   732   0.60000   1.40000   0.15000   0.10000   90.00000   0.00000   0.00100   731  732  733      0
   733   0.60000   1.40000   0.25000   0.10000   90.00000   0.00000   0.00100   732  733  734      0
   734   0.60000   1.40000   0.35000   0.10000   90.00000   0.00000   0.00100   733  734  735      0
   735   0.60000   1.40000   0.45000   0.10000   90.00000   0.00000   0.00100   734  735  736      0
   736   0.60000   1.40000   0.55000   0.10000   90.00000   0.00000   0.00100   735  736  737      0
   737   0.60000   1.40000   0.65000   0.10000   90.00000   0.00000   0.00100   736  737  738      0
   738   0.60000   1.40000   0.75000   0.10000   90.00000   0.00000   0.00100   737  738  739      0
   739   0.60000   1.40000   0.85000   0.10000   90.00000   0.00000   0.00100   738  739  740      0
   740   0.60000   1.40000   0.95000   0.10000   90.00000   0.00000   0.00100   739  740    0      0
   741   0.80000   1.40000   0.05000   0.10000   90.00000   0.00000   0.00100     0  741  742      0
   742   0.80000   1.40000   0.15000   0.10000   90.00000   0.00000   0.00100   741  742  743      0
   743   0.80000   1.40000   0.25000   0.10000   90.00000   0.00000   0.00100   742  743  744      0
   744   0.80000   1.40000   0.35000   0.10000   90.00000   0.00000   0.00100   743  744  745      0
   745   0.80000   1.40000   0.45000   0.10000   90.00000   0.00000   0.00100   744  745  746      0
   746   0.80000   1.40000   0.55000   0.10000   90.00000   0.00000   0.00100   745  746  747      0
   747   0.80000   1.40000   0.65000   0.10000   90.00000   0.00000   0.00100   746  747  748      0
   748   0.80000   1.40000   0.75000   0.10000   90.00000   0.00000   0.00100   747  748  749      0
   749   0.80000   1.40000   0.85000   0.10000   90.00000   0.00000   0.00100   748  749  750      0
   750   0.80000   1.40000   0.95000   0.10000   90.00000   0.00000   0.00100   749  750    0      0
   751   1.00000   1.40000   0.05000   0.10000   90.00000   0.00000   0.00100     0  751  752      0
   752   1.00000   1.40000   0.15000   0.10000   90.00000   0.00000   0.00100   751  752  753      0
   753   1.00000   1.40000   0.25000   0.10000   90.00000   0.00000   0.00100   752  753  754      0
   754   1.00000   1.40000   0.35000   0.10000   90.00000   0.00000   0.00100   753  754  755      0
   755   1.00000   1.40000   0.45000   0.10000   90.00000   0.00000   0.00100   754  755  756      0
   756   1.00000   1.40000   0.55000   0.10000   90.00000   0.00000   0.00100   755  756  757      0
   757   1.00000   1.40000   0.65000   0.10000   90.00000   0.00000   0.00100   756  757  758      0
   758   1.00000   1.40000   0.75000   0.10000   90.00000   0.00000   0.00100   757  758  759      0
   759   1.00000   1.40000   0.85000   0.10000   90.00000   0.00000   0.00100   758  759  760      0
   760   1.00000   1.40000   0.95000   0.10000   90.00000   0.00000   0.00100   759  760    0      0
   761   1.20000   1.40000   0.05000   0.10000   90.00000   0.00000   0.00100     0  761  762      0
   762   1.20000   1.40000   0.15000   0.10000   90.00000   0.00000   0.00100   761  762  763      0
   763   1.20000   1.40000   0.25000   0.10000   90.00000   0.00000   0.00100   762  763  764      0
   764   1.20000   1.40000   0.35000   0.10000   90.00000   0.00000   0.00100   763  764  765      0
   765   1.20000   1.40000   0.45000   0.10000   90.00000   0.00000   0.00100   764  765  766      0
   766   1.20000   1.40000   0.55000   0.10000   90.00000   0.00000   0.00100   765  766  767      0
   767   1.20000   1.40000   0.65000   0.10000   90.00000   0.00000   0.00100   766  767  768      0
   768   1.20000   1.40000   0.75000   0.10000   90.00000   0.00000   0.00100   767  768  769      0
   769   1.20000   1.40000   0.85000   0.10000   90.00000   0.00000   0.00100   768  769  770      0
   770   1.20000   1.40000   0.95000   0.10000   90.00000   0.00000   0.00100   769  770    0      0
   771   1.40000   1.40000   0.05000   0.10000   90.00000   0.00000   0.00100     0  771  772      0
   772   1.40000   1.40000   0.15000   0.10000   90.00000   0.00000   0.00100   771  772  773      0
   773   1.40000   1.40000   0.25000   0.10000   90.00000   0.00000   0.00100   772  773  774      0
[...]
   995    0   1.8000   1.8000   0.4500  0.10000   1.2284E-07 -1.2208E-06  1.2269E-06  -84.254
   996    0   1.8000   1.8000   0.5500  0.10000   4.9857E-07 -1.0734E-06  1.1835E-06  -65.085
   997    0   1.8000   1.8000   0.6500  0.10000   6.5098E-07 -5.4019E-07  8.4592E-07  -39.686
   998    0   1.8000   1.8000   0.7500  0.10000   5.4540E-07  1.2440E-07  5.5940E-07   12.849
   999    0   1.8000   1.8000   0.8500  0.10000   2.7382E-07  5.6374E-07  6.2673E-07   64.093
  1000    0   1.8000   1.8000   0.9500  0.10000   3.2710E-08  4.1561E-07  4.1690E-07   85.500
  1001    0   0.0000   2.0000   0.0500  0.10000  -1.8720E-06  9.5669E-07  2.1023E-06  152.931
  1002    0   0.0000   2.0000   0.1500  0.10000  -5.5647E-06  4.0807E-06  6.9006E-06  143.747
  1003    0   0.0000   2.0000   0.2500  0.10000  -8.3306E-06  7.2727E-06  1.1059E-05  138.879
  1004    0   0.0000   2.0000   0.3500  0.10000  -9.1422E-06  8.8976E-06  1.2757E-05  135.777
  1005    0   0.0000   2.0000   0.4500  0.10000  -7.6510E-06  8.1008E-06  1.1143E-05  133.365
  1006    0   0.0000   2.0000   0.5500  0.10000  -4.3799E-06  5.0800E-06  6.7075E-06  130.767
  1007    0   0.0000   2.0000   0.6500  0.10000  -5.3134E-07  9.7744E-07  1.1125E-06  118.529
  1008    0   0.0000   2.0000   0.7500  0.10000   2.4572E-06 -2.5623E-06  3.5501E-06  -46.199
  1009    0   0.0000   2.0000   0.8500  0.10000   3.4338E-06 -3.9945E-06  5.2675E-06  -49.316
  1010    0   0.0000   2.0000   0.9500  0.10000   1.8469E-06 -2.2941E-06  2.9451E-06  -51.163
  1011    0   0.2000   2.0000   0.0500  0.10000   2.5973E-07 -4.0234E-08  2.6283E-07   -8.806
  1012    0   0.2000   2.0000   0.1500  0.10000   7.4596E-09  1.1289E-06  1.1289E-06   89.621
  1013    0   0.2000   2.0000   0.2500  0.10000  -9.2206E-07  2.8494E-06  2.9948E-06  107.932
  1014    0   0.2000   2.0000   0.3500  0.10000  -2.0637E-06  4.0266E-06  4.5246E-06  117.135
  1015    0   0.2000   2.0000   0.4500  0.10000  -2.9329E-06  3.9965E-06  4.9572E-06  126.273
  1016    0   0.2000   2.0000   0.5500  0.10000  -3.1728E-06  2.6814E-06  4.1541E-06  139.798
  1017    0   0.2000   2.0000   0.6500  0.10000  -2.6839E-06  5.8143E-07  2.7462E-06  167.777
  1018    0   0.2000   2.0000   0.7500  0.10000  -1.6706E-06 -1.4189E-06  2.1919E-06 -139.657
  1019    0   0.2000   2.0000   0.8500  0.10000  -5.7999E-07 -2.3571E-06  2.4274E-06 -103.824
  1020    0   0.2000   2.0000   0.9500  0.10000   3.6034E-08 -1.4258E-06  1.4263E-06  -88.552
  1021    0   0.4000   2.0000   0.0500  0.10000   2.1517E-07 -1.1362E-07  2.4332E-07  -27.836
  1022    0   0.4000   2.0000   0.1500  0.10000   1.7736E-07  7.7787E-07  7.9783E-07   77.156
  1023    0   0.4000   2.0000   0.2500  0.10000  -3.1137E-07  2.1871E-06  2.2092E-06   98.103
  1024    0   0.4000   2.0000   0.3500  0.10000  -9.9708E-07  3.1705E-06  3.3236E-06  107.458
  1025    0   0.4000   2.0000   0.4500  0.10000  -1.5876E-06  3.1553E-06  3.5322E-06  116.709
  1026    0   0.4000   2.0000   0.5500  0.10000  -1.8433E-06  2.0653E-06  2.7683E-06  131.749
  1027    0   0.4000   2.0000   0.6500  0.10000  -1.6649E-06  3.1623E-07  1.6947E-06  169.245
  1028    0   0.4000   2.0000   0.7500  0.10000  -1.1335E-06 -1.3469E-06  1.7604E-06 -130.082
  1029    0   0.4000   2.0000   0.8500  0.10000  -4.8802E-07 -2.1040E-06  2.1598E-06 -103.059
  1030    0   0.4000   2.0000   0.9500  0.10000  -4.7123E-08 -1.2557E-06  1.2566E-06  -92.149
  1031    0   0.6000   2.0000   0.0500  0.10000   1.9159E-07 -1.9932E-07  2.7647E-07  -46.134
  1032    0   0.6000   2.0000   0.1500  0.10000   4.3999E-07  4.5737E-07  6.3465E-07   46.110
  1033    0   0.6000   2.0000   0.2500  0.10000   4.1389E-07  1.6882E-06  1.7382E-06   76.225
  1034    0   0.6000   2.0000   0.3500  0.10000   9.2084E-08  2.6668E-06  2.6684E-06   88.022
  1035    0   0.6000   2.0000   0.4500  0.10000  -4.1775E-07  2.8468E-06  2.8773E-06   98.348
  1036    0   0.6000   2.0000   0.5500  0.10000  -9.2519E-07  2.0874E-06  2.2833E-06  113.904
  1037    0   0.6000   2.0000   0.6500  0.10000  -1.2351E-06  6.7680E-07  1.4084E-06  151.279
  1038    0   0.6000   2.0000   0.7500  0.10000  -1.2244E-06 -7.7809E-07  1.4507E-06 -147.564
  1039    0   0.6000   2.0000   0.8500  0.10000  -8.8912E-07 -1.5567E-06  1.7927E-06 -119.734
  1040    0   0.6000   2.0000   0.9500  0.10000  -3.3143E-07 -9.9897E-07  1.0525E-06 -108.354
  1041    0   0.8000   2.0000   0.0500  0.10000   1.2040E-07 -2.5940E-07  2.8598E-07  -65.101
  1042    0   0.8000   2.0000   0.1500  0.10000   5.8882E-07  1.3824E-07  6.0483E-07   13.212
  1043    0   0.8000   2.0000   0.2500  0.10000   1.0044E-06  1.1222E-06  1.5060E-06   48.170
  1044    0   0.8000   2.0000   0.3500  0.10000   1.0711E-06  2.0364E-06  2.3009E-06   62.257
  1045    0   0.8000   2.0000   0.4500  0.10000   6.9612E-07  2.3965E-06  2.4956E-06   73.803
  1046    0   0.8000   2.0000   0.5500  0.10000  -4.1156E-09  2.0072E-06  2.0072E-06   90.117
  1047    0   0.8000   2.0000   0.6500  0.10000  -7.6158E-07  1.0150E-06  1.2689E-06  126.883
  1048    0   0.8000   2.0000   0.7500  0.10000  -1.2622E-06 -1.4779E-07  1.2709E-06 -173.322
  1049    0   0.8000   2.0000   0.8500  0.10000  -1.2571E-06 -9.0456E-07  1.5487E-06 -144.263
  1050    0   0.8000   2.0000   0.9500  0.10000  -6.1039E-07 -6.7682E-07  9.1141E-07 -132.046
  1051    0   1.0000   2.0000   0.0500  0.10000  -3.4169E-08 -2.9782E-07  2.9977E-07  -96.545
  1052    0   1.0000   2.0000   0.1500  0.10000   4.6598E-07 -2.4409E-07  5.2604E-07  -27.647
  1053    0   1.0000   2.0000   0.2500  0.10000   1.1878E-06  3.3008E-07  1.2328E-06   15.531
  1054    0   1.0000   2.0000   0.3500  0.10000   1.6321E-06  1.0378E-06  1.9341E-06   32.450
  1055    0   1.0000   2.0000   0.4500  0.10000   1.5211E-06  1.5294E-06  2.1570E-06   45.156
  1056    0   1.0000   2.0000   0.5500  0.10000   8.5219E-07  1.5830E-06  1.7978E-06   61.705
  1057    0   1.0000   2.0000   0.6500  0.10000  -1.1996E-07  1.1771E-06  1.1832E-06   95.819
  1058    0   1.0000   2.0000   0.7500  0.10000  -9.8237E-07  4.9974E-07  1.1022E-06  153.037
  1059    0   1.0000   2.0000   0.8500  0.10000  -1.3051E-06 -1.0885E-07  1.3096E-06 -175.232
  1060    0   1.0000   2.0000   0.9500  0.10000  -7.3706E-07 -2.4541E-07  7.7684E-07 -161.584
  1061    0   1.2000   2.0000   0.0500  0.10000  -1.8977E-07 -2.0479E-07  2.7920E-07 -132.821
  1062    0   1.2000   2.0000   0.1500  0.10000   1.7478E-07 -4.0892E-07  4.4470E-07  -66.858
  1063    0   1.2000   2.0000   0.2500  0.10000   9.6920E-07 -3.3639E-07  1.0259E-06  -19.141
  1064    0   1.2000   2.0000   0.3500  0.10000   1.6392E-06 -3.2166E-08  1.6395E-06   -1.124
  1065    0   1.2000   2.0000   0.4500  0.10000   1.8080E-06  3.8062E-07  1.8477E-06   11.888
  1066    0   1.2000   2.0000   0.5500  0.10000   1.3604E-06  7.4069E-07  1.5490E-06   28.566
  1067    0   1.2000   2.0000   0.6500  0.10000   4.6645E-07  9.1023E-07  1.0228E-06   62.867
  1068    0   1.2000   2.0000   0.7500  0.10000  -4.8419E-07  8.2885E-07  9.5991E-07  120.292
  1069    0   1.2000   2.0000   0.8500  0.10000  -1.0122E-06  5.3946E-07  1.1470E-06  151.944
  1070    0   1.2000   2.0000   0.9500  0.10000  -6.6118E-07  1.7030E-07  6.8276E-07  165.556
  1071    0   1.4000   2.0000   0.0500  0.10000  -2.6580E-07 -3.2605E-08  2.6780E-07 -173.007
  1072    0   1.4000   2.0000   0.1500  0.10000  -1.5709E-07 -3.7280E-07  4.0454E-07 -112.850
  1073    0   1.4000   2.0000   0.2500  0.10000   4.1479E-07 -7.6393E-07  8.6927E-07  -61.500
  1074    0   1.4000   2.0000   0.3500  0.10000   1.0404E-06 -9.2687E-07  1.3934E-06  -41.697
  1075    0   1.4000   2.0000   0.4500  0.10000   1.3889E-06 -7.3528E-07  1.5716E-06  -27.896
  1076    0   1.4000   2.0000   0.5500  0.10000   1.2880E-06 -2.3562E-07  1.3093E-06  -10.367
  1077    0   1.4000   2.0000   0.6500  0.10000   7.7543E-07  3.8144E-07  8.6417E-07   26.193
  1078    0   1.4000   2.0000   0.7500  0.10000   8.5239E-08  8.5548E-07  8.5971E-07   84.310
  1079    0   1.4000   2.0000   0.8500  0.10000  -4.2768E-07  9.4739E-07  1.0395E-06  114.296
  1080    0   1.4000   2.0000   0.9500  0.10000  -3.7404E-07  4.9063E-07  6.1695E-07  127.320
  1081    0   1.6000   2.0000   0.0500  0.10000  -2.2372E-07  1.3703E-07  2.6235E-07  148.512
  1082    0   1.6000   2.0000   0.1500  0.10000  -4.0369E-07 -1.6878E-07  4.3755E-07 -157.311
  1083    0   1.6000   2.0000   0.2500  0.10000  -2.9443E-07 -7.8480E-07  8.3821E-07 -110.564
  1084    0   1.6000   2.0000   0.3500  0.10000   6.0986E-09 -1.2627E-06  1.2627E-06  -89.723
  1085    0   1.6000   2.0000   0.4500  0.10000   3.5672E-07 -1.3146E-06  1.3621E-06  -74.818
  1086    0   1.6000   2.0000   0.5500  0.10000   6.1167E-07 -8.7590E-07  1.0683E-06  -55.072
  1087    0   1.6000   2.0000   0.6500  0.10000   6.7313E-07 -1.1434E-07  6.8277E-07   -9.641
  1088    0   1.6000   2.0000   0.7500  0.10000   5.2980E-07  6.3602E-07  8.2777E-07   50.206
  1089    0   1.6000   2.0000   0.8500  0.10000   2.6652E-07  9.8891E-07  1.0242E-06   74.917
  1090    0   1.6000   2.0000   0.9500  0.10000   4.1078E-08  5.9584E-07  5.9726E-07   86.056
  1091    0   1.8000   2.0000   0.0500  0.10000  -3.7553E-08  4.4115E-07  4.4275E-07   94.866
  1092    0   1.8000   2.0000   0.1500  0.10000  -3.4735E-07  6.6798E-07  7.5290E-07  117.475
  1093    0   1.8000   2.0000   0.2500  0.10000  -7.2330E-07  3.3600E-07  7.9753E-07  155.083
  1094    0   1.8000   2.0000   0.3500  0.10000  -9.2703E-07 -2.2809E-07  9.5468E-07 -166.178
  1095    0   1.8000   2.0000   0.4500  0.10000  -8.3000E-07 -7.1227E-07  1.0937E-06 -139.365
  1096    0   1.8000   2.0000   0.5500  0.10000  -4.4755E-07 -8.9136E-07  9.9741E-07 -116.661
  1097    0   1.8000   2.0000   0.6500  0.10000   7.1894E-08 -7.0110E-07  7.0478E-07  -84.145
  1098    0   1.8000   2.0000   0.7500  0.10000   5.0652E-07 -2.6116E-07  5.6989E-07  -27.275
  1099    0   1.8000   2.0000   0.8500  0.10000   6.4598E-07  1.6223E-07  6.6604E-07   14.098
  1100    0   1.8000   2.0000   0.9500  0.10000   3.5037E-07  2.2609E-07  4.1698E-07   32.834
  1101    0   0.0000   2.2000   0.0500  0.10000   4.1640E-07  7.8564E-07  8.8916E-07   62.076
  1102    0   0.0000   2.2000   0.1500  0.10000   2.1890E-06  3.1534E-06  3.8387E-06   55.232
  1103    0   0.0000   2.2000   0.2500  0.10000   4.1501E-06  5.5587E-06  6.9370E-06   53.255
  1104    0   0.0000   2.2000   0.3500  0.10000   5.1831E-06  6.8600E-06  8.5979E-06   52.927
  1105    0   0.0000   2.2000   0.4500  0.10000   4.6799E-06  6.4288E-06  7.9518E-06   53.947
  1106    0   0.0000   2.2000   0.5500  0.10000   2.7388E-06  4.3636E-06  5.1519E-06   57.886
  1107    0   0.0000   2.2000   0.6500  0.10000   1.0771E-07  1.4348E-06  1.4389E-06   85.707
  1108    0   0.0000   2.2000   0.7500  0.10000  -2.1148E-06 -1.2058E-06  2.4344E-06 -150.309
  1109    0   0.0000   2.2000   0.8500  0.10000  -2.9028E-06 -2.4396E-06  3.7918E-06 -139.955
  1110    0   0.0000   2.2000   0.9500  0.10000  -1.6017E-06 -1.4902E-06  2.1877E-06 -137.066
  1111    0   0.2000   2.2000   0.0500  0.10000  -1.6351E-07 -9.1840E-07  9.3284E-07 -100.095
  1112    0   0.2000   2.2000   0.1500  0.10000   4.4602E-07 -1.4517E-06  1.5186E-06  -72.921
  1113    0   0.2000   2.2000   0.2500  0.10000   1.5208E-06 -7.9509E-07  1.7161E-06  -27.601
  1114    0   0.2000   2.2000   0.3500  0.10000   2.2876E-06  4.7443E-07  2.3363E-06   11.717
  1115    0   0.2000   2.2000   0.4500  0.10000   2.2594E-06  1.7387E-06  2.8510E-06   37.579
  1116    0   0.2000   2.2000   0.5500  0.10000   1.3648E-06  2.4683E-06  2.8205E-06   61.060
  1117    0   0.2000   2.2000   0.6500  0.10000  -4.5373E-08  2.3945E-06  2.3950E-06   91.086
  1118    0   0.2000   2.2000   0.7500  0.10000  -1.3414E-06  1.6124E-06  2.0974E-06  129.758
  1119    0   0.2000   2.2000   0.8500  0.10000  -1.8532E-06  5.6658E-07  1.9379E-06  163.000
  1120    0   0.2000   2.2000   0.9500  0.10000  -1.0541E-06 -6.9918E-08  1.0565E-06 -176.205
  1121    0   0.4000   2.2000   0.0500  0.10000  -4.7749E-07 -5.9895E-07  7.6599E-07 -128.562
  1122    0   0.4000   2.2000   0.1500  0.10000  -4.0443E-07 -9.0645E-07  9.9258E-07 -114.045
  1123    0   0.4000   2.2000   0.2500  0.10000   3.5043E-07 -4.4511E-07  5.6651E-07  -51.787
  1124    0   0.4000   2.2000   0.3500  0.10000   1.1233E-06  3.5899E-07  1.1793E-06   17.723
  1125    0   0.4000   2.2000   0.4500  0.10000   1.4293E-06  1.0941E-06  1.8000E-06   37.434
  1126    0   0.4000   2.2000   0.5500  0.10000   1.0745E-06  1.4431E-06  1.7992E-06   53.328
  1127    0   0.4000   2.2000   0.6500  0.10000   2.0831E-07  1.2796E-06  1.2964E-06   80.754
  1128    0   0.4000   2.2000   0.7500  0.10000  -7.4362E-07  7.1498E-07  1.0316E-06  136.125
  1129    0   0.4000   2.2000   0.8500  0.10000  -1.2382E-06  7.5103E-08  1.2404E-06  176.529
  1130    0   0.4000   2.2000   0.9500  0.10000  -7.6650E-07 -1.8040E-07  7.8744E-07 -166.756
  1131    0   0.6000   2.2000   0.0500  0.10000  -5.1592E-07 -3.3518E-07  6.1524E-07 -146.989
  1132    0   0.6000   2.2000   0.1500  0.10000  -4.9152E-07 -5.1170E-07  7.0953E-07 -133.848
  1133    0   0.6000   2.2000   0.2500  0.10000   2.6195E-07 -2.3704E-07  3.5328E-07  -42.143
  1134    0   0.6000   2.2000   0.3500  0.10000   1.0842E-06  2.6212E-07  1.1155E-06   13.591
  1135    0   0.6000   2.2000   0.4500  0.10000   1.4768E-06  7.4699E-07  1.6550E-06   26.831
  1136    0   0.6000   2.2000   0.5500  0.10000   1.2156E-06  1.0150E-06  1.5836E-06   39.863
  1137    0   0.6000   2.2000   0.6500  0.10000   4.1228E-07  9.6307E-07  1.0476E-06   66.825
  1138    0   0.6000   2.2000   0.7500  0.10000  -5.3501E-07  6.2900E-07  8.2576E-07  130.384
  1139    0   0.6000   2.2000   0.8500  0.10000  -1.0874E-06  1.9462E-07  1.1047E-06  169.853
  1140    0   0.6000   2.2000   0.9500  0.10000  -7.1311E-07 -5.2509E-08  7.1504E-07 -175.789
  1141    0   0.8000   2.2000   0.0500  0.10000  -4.8435E-07 -1.5048E-07  5.0719E-07 -162.740
  1142    0   0.8000   2.2000   0.1500  0.10000  -4.4034E-07 -3.5433E-07  5.6520E-07 -141.177
  1143    0   0.8000   2.2000   0.2500  0.10000   3.2160E-07 -3.8211E-07  4.9943E-07  -49.914
  1144    0   0.8000   2.2000   0.3500  0.10000   1.1725E-06 -2.1124E-07  1.1914E-06  -10.213
  1145    0   0.8000   2.2000   0.4500  0.10000   1.6216E-06  1.0886E-07  1.6253E-06    3.840
  1146    0   0.8000   2.2000   0.5500  0.10000   1.4293E-06  4.6333E-07  1.5025E-06   17.961
  1147    0   0.8000   2.2000   0.6500  0.10000   6.7662E-07  7.1151E-07  9.8186E-07   46.440
  1148    0   0.8000   2.2000   0.7500  0.10000  -2.7075E-07  7.4614E-07  7.9375E-07  109.944
  1149    0   0.8000   2.2000   0.8500  0.10000  -8.8950E-07  5.4699E-07  1.0442E-06  148.411
  1150    0   0.8000   2.2000   0.9500  0.10000  -6.3711E-07  1.9582E-07  6.6652E-07  162.915
  1151    0   1.0000   2.2000   0.0500  0.10000  -4.7510E-07  3.5353E-08  4.7641E-07  175.744
  1152    0   1.0000   2.2000   0.1500  0.10000  -5.5897E-07 -1.9653E-07  5.9251E-07 -160.628
  1153    0   1.0000   2.2000   0.2500  0.10000   3.0974E-08 -5.4681E-07  5.4768E-07  -86.758
  1154    0   1.0000   2.2000   0.3500  0.10000   8.0300E-07 -7.4854E-07  1.0978E-06  -42.990
  1155    0   1.0000   2.2000   0.4500  0.10000   1.3354E-06 -6.5151E-07  1.4859E-06  -26.006
  1156    0   1.0000   2.2000   0.5500  0.10000   1.3727E-06 -2.6167E-07  1.3974E-06  -10.793
  1157    0   1.0000   2.2000   0.6500  0.10000   9.0427E-07  2.6626E-07  9.4265E-07   16.407
  1158    0   1.0000   2.2000   0.7500  0.10000   1.6752E-07  6.9301E-07  7.1297E-07   76.411
  1159    0   1.0000   2.2000   0.8500  0.10000  -4.2847E-07  7.9068E-07  8.9932E-07  118.453
  1160    0   1.0000   2.2000   0.9500  0.10000  -4.0777E-07  4.1087E-07  5.7887E-07  134.783
  1161    0   1.2000   2.2000   0.0500  0.10000  -3.7688E-07  2.4960E-07  4.5204E-07  146.484
  1162    0   1.2000   2.2000   0.1500  0.10000  -5.9961E-07  1.1578E-07  6.1068E-07  169.071
  1163    0   1.2000   2.2000   0.2500  0.10000  -3.4373E-07 -4.2775E-07  5.4875E-07 -128.784
  1164    0   1.2000   2.2000   0.3500  0.10000   1.4606E-07 -9.5289E-07  9.6402E-07  -81.285
  1165    0   1.2000   2.2000   0.4500  0.10000   6.1674E-07 -1.1471E-06  1.3024E-06  -61.736
  1166    0   1.2000   2.2000   0.5500  0.10000   8.6168E-07 -8.8936E-07  1.2383E-06  -45.906
  1167    0   1.2000   2.2000   0.6500  0.10000   7.8802E-07 -2.8392E-07  8.3761E-07  -19.814
  1168    0   1.2000   2.2000   0.7500  0.10000   4.5324E-07  3.8339E-07  5.9364E-07   40.227
  1169    0   1.2000   2.2000   0.8500  0.10000   5.5711E-08  7.5112E-07  7.5318E-07   85.758
  1170    0   1.2000   2.2000   0.9500  0.10000  -1.1139E-07  4.8268E-07  4.9536E-07  102.995
  1171    0   1.4000   2.2000   0.0500  0.10000  -1.7787E-07  4.0270E-07  4.4023E-07  113.830
  1172    0   1.4000   2.2000   0.1500  0.10000  -4.6712E-07  4.5462E-07  6.5182E-07  135.777
  1173    0   1.4000   2.2000   0.2500  0.10000  -6.0060E-07 -6.4152E-08  6.0402E-07 -173.903
  1174    0   1.4000   2.2000   0.3500  0.10000  -5.2389E-07 -7.1448E-07  8.8597E-07 -126.251
  1175    0   1.4000   2.2000   0.4500  0.10000  -2.5817E-07 -1.1298E-06  1.1590E-06 -102.871
  1176    0   1.4000   2.2000   0.5500  0.10000   9.9213E-08 -1.1021E-06  1.1066E-06  -84.856
  1177    0   1.4000   2.2000   0.6500  0.10000   4.0997E-07 -6.4674E-07  7.6574E-07  -57.629
  1178    0   1.4000   2.2000   0.7500  0.10000   5.5033E-07  5.9770E-09  5.5036E-07    0.622
  1179    0   1.4000   2.2000   0.8500  0.10000   4.6492E-07  4.8975E-07  6.7528E-07   46.490
  1180    0   1.4000   2.2000   0.9500  0.10000   1.8825E-07  3.9979E-07  4.4190E-07   64.785
  1181    0   1.6000   2.2000   0.0500  0.10000   8.4507E-08  3.9510E-07  4.0403E-07   77.927
  1182    0   1.6000   2.2000   0.1500  0.10000  -1.2397E-07  6.0989E-07  6.2237E-07  101.490
  1183    0   1.6000   2.2000   0.2500  0.10000  -5.3275E-07  3.3143E-07  6.2743E-07  148.114
  1184    0   1.6000   2.2000   0.3500  0.10000  -8.4492E-07 -1.5679E-07  8.5934E-07 -169.487
  1185    0   1.6000   2.2000   0.4500  0.10000  -8.6705E-07 -5.8302E-07  1.0448E-06 -146.082
  1186    0   1.6000   2.2000   0.5500  0.10000  -5.5909E-07 -7.4852E-07  9.3428E-07 -126.757
  1187    0   1.6000   2.2000   0.6500  0.10000  -4.2880E-08 -5.9245E-07  5.9400E-07  -94.140
  1188    0   1.6000   2.2000   0.7500  0.10000   4.4812E-07 -2.1460E-07  4.9686E-07  -25.590
  1189    0   1.6000   2.2000   0.8500  0.10000   6.5823E-07  1.5321E-07  6.7582E-07   13.103
  1190    0   1.6000   2.2000   0.9500  0.10000   3.8270E-07  2.0477E-07  4.3404E-07   28.149
  1191    0   1.8000   2.2000   0.0500  0.10000   4.9055E-07  2.7038E-07  5.6012E-07   28.863
  1192    0   1.8000   2.2000   0.1500  0.10000   7.6346E-07  6.3334E-07  9.9196E-07   39.678
  1193    0   1.8000   2.2000   0.2500  0.10000   4.2380E-07  7.6298E-07  8.7277E-07   60.950
  1194    0   1.8000   2.2000   0.3500  0.10000  -1.8257E-07  6.6276E-07  6.8745E-07  105.401
  1195    0   1.8000   2.2000   0.4500  0.10000  -7.1558E-07  3.9367E-07  8.1672E-07  151.183
  1196    0   1.8000   2.2000   0.5500  0.10000  -9.2622E-07  6.8119E-08  9.2872E-07  175.794
  1197    0   1.8000   2.2000   0.6500  0.10000  -7.4274E-07 -1.8918E-07  7.6646E-07 -165.710
  1198    0   1.8000   2.2000   0.7500  0.10000  -2.9393E-07 -2.9075E-07  4.1344E-07 -135.311
  1199    0   1.8000   2.2000   0.8500  0.10000   1.4020E-07 -2.2605E-07  2.6599E-07  -58.192
  1200    0   1.8000   2.2000   0.9500  0.10000   2.1507E-07 -7.1803E-08  2.2674E-07  -18.462



                                        - - - POWER BUDGET - - -

                                           INPUT POWER   = 3.3864E-04 WATTS
                                           RADIATED POWER= 3.3864E-04 WATTS
                                           STRUCTURE LOSS= 0.0000E+00 WATTS
                                           NETWORK LOSS  = 0.0000E+00 WATTS
                                           EFFICIENCY    = 100.00 PERCENT






 ***** DATA CARD NO.  3   EN   0     0     0     0  0.00000E+00  0.00000E+00  0.00000E+00  0.00000E+00  0.00000E+00  0.00000E+00

 RUN TIME =   208.980
