1



                                 *********************************************

                                    NUMERICAL ELECTROMAGNETICS CODE (NEC-2D)

                                 *********************************************




                                     - - - - COMMENTS - - - -


                          TESTNETW.NEC: NEC2 network card test.                                        




                                 - - - STRUCTURE SPECIFICATION - - -

                                     COORDINATES MUST BE INPUT IN
                                     METERS OR BE SCALED TO METERS
                                     BEFORE STRUCTURE INPUT IS ENDED


  WIRE                                                                               NO. OF    FIRST  LAST     TAG
  NO.        X1         Y1         Z1          X2         Y2         Z2      RADIUS   SEG.     SEG.   SEG.     NO.
     1    0.00000    0.00000   -0.06900     0.00000    0.00000    0.06900    0.00150     25        1    25       1

   TOTAL SEGMENTS USED=   25     NO. SEG. IN A SYMMETRIC CELL=   25     SYMMETRY FLAG=  0


         - MULTIPLE WIRE JUNCTIONS -
 JUNCTION    SEGMENTS  (- FOR END 1, + FOR END 2)
  NONE




                                 - - - - SEGMENTATION DATA - - - -

                                        COORDINATES IN METERS

                         I+ AND I- INDICATE THE SEGMENTS BEFORE AND AFTER I


  SEG.   COORDINATES OF SEG. CENTER     SEG.     ORIENTATION ANGLES    WIRE    CONNECTION DATA   TAG
  NO.       X         Y         Z       LENGTH     ALPHA     BETA      RADIUS    I-   I    I+    NO.
     1   0.00000   0.00000  -0.06624   0.00552   90.00000   0.00000   0.00150     0    1    2      1
     2   0.00000   0.00000  -0.06072   0.00552   90.00000   0.00000   0.00150     1    2    3      1
     3   0.00000   0.00000  -0.05520   0.00552   90.00000   0.00000   0.00150     2    3    4      1
     4   0.00000   0.00000  -0.04968   0.00552   90.00000   0.00000   0.00150     3    4    5      1
     5   0.00000   0.00000  -0.04416   0.00552   90.00000   0.00000   0.00150     4    5    6      1
     6   0.00000   0.00000  -0.03864   0.00552   90.00000   0.00000   0.00150     5    6    7      1
     7   0.00000   0.00000  -0.03312   0.00552   90.00000   0.00000   0.00150     6    7    8      1
     8   0.00000   0.00000  -0.02760   0.00552   90.00000   0.00000   0.00150     7    8    9      1
     9   0.00000   0.00000  -0.02208   0.00552   90.00000   0.00000   0.00150     8    9   10      1
    10   0.00000   0.00000  -0.01656   0.00552   90.00000   0.00000   0.00150     9   10   11      1
    11   0.00000   0.00000  -0.01104   0.00552   90.00000   0.00000   0.00150    10   11   12      1
    12   0.00000   0.00000  -0.00552   0.00552   90.00000   0.00000   0.00150    11   12   13      1
    13   0.00000   0.00000   0.00000   0.00552   90.00000   0.00000   0.00150    12   13   14      1
    14   0.00000   0.00000   0.00552   0.00552   90.00000   0.00000   0.00150    13   14   15      1
    15   0.00000   0.00000   0.01104   0.00552   90.00000   0.00000   0.00150    14   15   16      1
    16   0.00000   0.00000   0.01656   0.00552   90.00000   0.00000   0.00150    15   16   17      1
    17   0.00000   0.00000   0.02208   0.00552   90.00000   0.00000   0.00150    16   17   18      1
    18   0.00000   0.00000   0.02760   0.00552   90.00000   0.00000   0.00150    17   18   19      1
    19   0.00000   0.00000   0.03312   0.00552   90.00000   0.00000   0.00150    18   19   20      1
    20   0.00000   0.00000   0.03864   0.00552   90.00000   0.00000   0.00150    19   20   21      1
    21   0.00000   0.00000   0.04416   0.00552   90.00000   0.00000   0.00150    20   21   22      1
    22   0.00000   0.00000   0.04968   0.00552   90.00000   0.00000   0.00150    21   22   23      1
    23   0.00000   0.00000   0.05520   0.00552   90.00000   0.00000   0.00150    22   23   24      1
    24   0.00000   0.00000   0.06072   0.00552   90.00000   0.00000   0.00150    23   24   25      1
    25   0.00000   0.00000   0.06624   0.00552   90.00000   0.00000   0.00150    24   25    0      1






 ***** DATA CARD NO.  1   NT   1     9     1    17  1.00000E+01  2.00000E+01  1.30000E+01  1.70000E+01  7.00000E+00  2.10000E+01
 ***** DATA CARD NO.  2   FR   0     1     0     0  1.00000E+03  0.00000E+00  0.00000E+00  0.00000E+00  0.00000E+00  0.00000E+00
 ***** DATA CARD NO.  3   EX   1     1     1     0  9.00000E+01  0.00000E+00  0.00000E+00  0.00000E+00  0.00000E+00  0.00000E+00
 ***** DATA CARD NO.  4   XQ   0     0     0     0  0.00000E+00  0.00000E+00  0.00000E+00  0.00000E+00  0.00000E+00  0.00000E+00




                                 - - - - - - FREQUENCY - - - - - -

                                    FREQUENCY= 1.0000E+03 MHZ
                                    WAVELENGTH= 2.9979E-01 METERS




                    APPROXIMATE INTEGRATION EMPLOYED FOR SEGMENTS MORE THAN   1.000 WAVELENGTHS APART



                               - - - STRUCTURE IMPEDANCE LOADING - - -

                                   THIS STRUCTURE IS NOT LOADED



                                  - - - ANTENNA ENVIRONMENT - - -

                                            FREE SPACE



                                - - - MATRIX TIMING - - -

                        FILL=    0.020 SEC.,  FACTOR=    0.000 SEC.



                                        - - - EXCITATION - - -

    PLANE WAVE    THETA=  90.00 DEG,  PHI=   0.00 DEG,  ETA=   0.00 DEG,  TYPE -LINEAR=  AXIAL RATIO= 0.000



                                            - - - NETWORK DATA - - -

      - FROM -    - TO -                          -  -  ADMITTANCE MATRIX ELEMENTS (MHOS)  -  -
      TAG  SEG.   TAG  SEG.             (ONE,ONE)                   (ONE,TWO)                   (TWO,TWO)
      NO.   NO.   NO.   NO.        REAL          IMAG.         REAL          IMAG.         REAL          IMAG.
        1     9     1    17     1.0000E+01    2.0000E+01    1.3000E+01    1.7000E+01    7.0000E+00    2.1000E+01           



                           - - - STRUCTURE EXCITATION DATA AT NETWORK CONNECTION POINTS - - -

   TAG   SEG.    VOLTAGE (VOLTS)         CURRENT (AMPS)         IMPEDANCE (OHMS)        ADMITTANCE (MHOS)      POWER
   NO.   NO.    REAL        IMAG.       REAL        IMAG.       REAL        IMAG.       REAL        IMAG.     (WATTS)
     1     9 1.54375E-05-3.03600E-05-1.15993E-03 1.53945E-04-1.64922E-02 2.39851E-02-1.94649E+01-2.83084E+01-1.12901E-08
     1    17 5.40182E-06-1.93020E-05-1.15996E-03 1.53918E-04-6.74613E-03 1.57450E-02-2.29917E+01-5.36611E+01-4.61842E-09



                             - - - CURRENTS AND LOCATION - - -

                                 DISTANCES IN WAVELENGTHS


  SEG.  TAG    COORD. OF SEG. CENTER     SEG.            - - - CURRENT (AMPS) - - -
  NO.   NO.     X        Y        Z      LENGTH     REAL        IMAG.       MAG.        PHASE
     1    1   0.0000   0.0000  -0.2210  0.01841  -1.8397E-04  2.2679E-05  1.8537E-04  172.972
     2    1   0.0000   0.0000  -0.2025  0.01841  -3.6505E-04  4.5696E-05  3.6790E-04  172.865
     3    1   0.0000   0.0000  -0.1841  0.01841  -5.1860E-04  6.5775E-05  5.2275E-04  172.772
     4    1   0.0000   0.0000  -0.1657  0.01841  -6.5849E-04  8.4450E-05  6.6388E-04  172.692
     5    1   0.0000   0.0000  -0.1473  0.01841  -7.8554E-04  1.0170E-04  7.9210E-04  172.623
     6    1   0.0000   0.0000  -0.1289  0.01841  -8.9980E-04  1.1743E-04  9.0743E-04  172.564
     7    1   0.0000   0.0000  -0.1105  0.01841  -1.0007E-03  1.3149E-04  1.0093E-03  172.515
     8    1   0.0000   0.0000  -0.0921  0.01841  -1.0877E-03  1.4371E-04  1.0971E-03  172.473
     9    1   0.0000   0.0000  -0.0737  0.01841  -1.1599E-03  1.5394E-04  1.1701E-03  172.440
    10    1   0.0000   0.0000  -0.0552  0.01841  -1.2169E-03  1.6203E-04  1.2276E-03  172.415
    11    1   0.0000   0.0000  -0.0368  0.01841  -1.2580E-03  1.6789E-04  1.2691E-03  172.398
    12    1   0.0000   0.0000  -0.0184  0.01841  -1.2828E-03  1.7144E-04  1.2942E-03  172.387
    13    1   0.0000   0.0000   0.0000  0.01841  -1.2911E-03  1.7263E-04  1.3026E-03  172.384
    14    1   0.0000   0.0000   0.0184  0.01841  -1.2828E-03  1.7144E-04  1.2942E-03  172.388
    15    1   0.0000   0.0000   0.0368  0.01841  -1.2580E-03  1.6788E-04  1.2691E-03  172.398
    16    1   0.0000   0.0000   0.0552  0.01841  -1.2169E-03  1.6202E-04  1.2276E-03  172.416
    17    1   0.0000   0.0000   0.0737  0.01841  -1.1600E-03  1.5392E-04  1.1701E-03  172.441
    18    1   0.0000   0.0000   0.0921  0.01841  -1.0877E-03  1.4369E-04  1.0972E-03  172.475
    19    1   0.0000   0.0000   0.1105  0.01841  -1.0008E-03  1.3147E-04  1.0094E-03  172.516
    20    1   0.0000   0.0000   0.1289  0.01841  -8.9982E-04  1.1742E-04  9.0744E-04  172.566
    21    1   0.0000   0.0000   0.1473  0.01841  -7.8556E-04  1.0169E-04  7.9211E-04  172.624
    22    1   0.0000   0.0000   0.1657  0.01841  -6.5850E-04  8.4439E-05  6.6389E-04  172.693
    23    1   0.0000   0.0000   0.1841  0.01841  -5.1861E-04  6.5766E-05  5.2276E-04  172.773
    24    1   0.0000   0.0000   0.2025  0.01841  -3.6505E-04  4.5690E-05  3.6790E-04  172.866
    25    1   0.0000   0.0000   0.2210  0.01841  -1.8398E-04  2.2676E-05  1.8537E-04  172.973






 ***** DATA CARD NO.  5   EN   0     0     0     0  0.00000E+00  0.00000E+00  0.00000E+00  0.00000E+00  0.00000E+00  0.00000E+00

 RUN TIME =     0.020
