1



                                 *********************************************

                                    NUMERICAL ELECTROMAGNETICS CODE (NEC-2D)

                                 *********************************************




                                     - - - - COMMENTS - - - -


                          TEST0600.NEC: NEC2 timing test - 600 segments.                               




                                 - - - STRUCTURE SPECIFICATION - - -

                                     COORDINATES MUST BE INPUT IN
                                     METERS OR BE SCALED TO METERS
                                     BEFORE STRUCTURE INPUT IS ENDED


  WIRE                                                                               NO. OF    FIRST  LAST     TAG
  NO.        X1         Y1         Z1          X2         Y2         Z2      RADIUS   SEG.     SEG.   SEG.     NO.
     1    0.00000    0.00000    0.00000     0.00000    0.00000    1.00000    0.00100     10        1    10       0
      THE STRUCTURE HAS BEEN MOVED, MOVE DATA CARD IS -
        0    9   0.00000   0.00000   0.00000   0.20000   0.00000   0.00000   0.00000
      THE STRUCTURE HAS BEEN MOVED, MOVE DATA CARD IS -
        0    5   0.00000   0.00000   0.00000   0.00000   0.20000   0.00000   0.00000

   TOTAL SEGMENTS USED=  600     NO. SEG. IN A SYMMETRIC CELL=  600     SYMMETRY FLAG=  0


         - MULTIPLE WIRE JUNCTIONS -
 JUNCTION    SEGMENTS  (- FOR END 1, + FOR END 2)
  NONE




                                 - - - - SEGMENTATION DATA - - - -

                                        COORDINATES IN METERS

                         I+ AND I- INDICATE THE SEGMENTS BEFORE AND AFTER I


  SEG.   COORDINATES OF SEG. CENTER     SEG.     ORIENTATION ANGLES    WIRE    CONNECTION DATA   TAG
  NO.       X         Y         Z       LENGTH     ALPHA     BETA      RADIUS    I-   I    I+    NO.
     1   0.00000   0.00000   0.05000   0.10000   90.00000   0.00000   0.00100     0    1    2      0
     2   0.00000   0.00000   0.15000   0.10000   90.00000   0.00000   0.00100     1    2    3      0
     3   0.00000   0.00000   0.25000   0.10000   90.00000   0.00000   0.00100     2    3    4      0
     4   0.00000   0.00000   0.35000   0.10000   90.00000   0.00000   0.00100     3    4    5      0
     5   0.00000   0.00000   0.45000   0.10000   90.00000   0.00000   0.00100     4    5    6      0
     6   0.00000   0.00000   0.55000   0.10000   90.00000   0.00000   0.00100     5    6    7      0
     7   0.00000   0.00000   0.65000   0.10000   90.00000   0.00000   0.00100     6    7    8      0
     8   0.00000   0.00000   0.75000   0.10000   90.00000   0.00000   0.00100     7    8    9      0
     9   0.00000   0.00000   0.85000   0.10000   90.00000   0.00000   0.00100     8    9   10      0
    10   0.00000   0.00000   0.95000   0.10000   90.00000   0.00000   0.00100     9   10    0      0
    11   0.20000   0.00000   0.05000   0.10000   90.00000   0.00000   0.00100     0   11   12      0
    12   0.20000   0.00000   0.15000   0.10000   90.00000   0.00000   0.00100    11   12   13      0
    13   0.20000   0.00000   0.25000   0.10000   90.00000   0.00000   0.00100    12   13   14      0
    14   0.20000   0.00000   0.35000   0.10000   90.00000   0.00000   0.00100    13   14   15      0
    15   0.20000   0.00000   0.45000   0.10000   90.00000   0.00000   0.00100    14   15   16      0
    16   0.20000   0.00000   0.55000   0.10000   90.00000   0.00000   0.00100    15   16   17      0
    17   0.20000   0.00000   0.65000   0.10000   90.00000   0.00000   0.00100    16   17   18      0
    18   0.20000   0.00000   0.75000   0.10000   90.00000   0.00000   0.00100    17   18   19      0
    19   0.20000   0.00000   0.85000   0.10000   90.00000   0.00000   0.00100    18   19   20      0
    20   0.20000   0.00000   0.95000   0.10000   90.00000   0.00000   0.00100    19   20    0      0
    21   0.40000   0.00000   0.05000   0.10000   90.00000   0.00000   0.00100     0   21   22      0
    22   0.40000   0.00000   0.15000   0.10000   90.00000   0.00000   0.00100    21   22   23      0
    23   0.40000   0.00000   0.25000   0.10000   90.00000   0.00000   0.00100    22   23   24      0
    24   0.40000   0.00000   0.35000   0.10000   90.00000   0.00000   0.00100    23   24   25      0
    25   0.40000   0.00000   0.45000   0.10000   90.00000   0.00000   0.00100    24   25   26      0
    26   0.40000   0.00000   0.55000   0.10000   90.00000   0.00000   0.00100    25   26   27      0
    27   0.40000   0.00000   0.65000   0.10000   90.00000   0.00000   0.00100    26   27   28      0
    28   0.40000   0.00000   0.75000   0.10000   90.00000   0.00000   0.00100    27   28   29      0
    29   0.40000   0.00000   0.85000   0.10000   90.00000   0.00000   0.00100    28   29   30      0
    30   0.40000   0.00000   0.95000   0.10000   90.00000   0.00000   0.00100    29   30    0      0
    31   0.60000   0.00000   0.05000   0.10000   90.00000   0.00000   0.00100     0   31   32      0
    32   0.60000   0.00000   0.15000   0.10000   90.00000   0.00000   0.00100    31   32   33      0
    33   0.60000   0.00000   0.25000   0.10000   90.00000   0.00000   0.00100    32   33   34      0
    34   0.60000   0.00000   0.35000   0.10000   90.00000   0.00000   0.00100    33   34   35      0
    35   0.60000   0.00000   0.45000   0.10000   90.00000   0.00000   0.00100    34   35   36      0
    36   0.60000   0.00000   0.55000   0.10000   90.00000   0.00000   0.00100    35   36   37      0
    37   0.60000   0.00000   0.65000   0.10000   90.00000   0.00000   0.00100    36   37   38      0
    38   0.60000   0.00000   0.75000   0.10000   90.00000   0.00000   0.00100    37   38   39      0
    39   0.60000   0.00000   0.85000   0.10000   90.00000   0.00000   0.00100    38   39   40      0
    40   0.60000   0.00000   0.95000   0.10000   90.00000   0.00000   0.00100    39   40    0      0
    41   0.80000   0.00000   0.05000   0.10000   90.00000   0.00000   0.00100     0   41   42      0
    42   0.80000   0.00000   0.15000   0.10000   90.00000   0.00000   0.00100    41   42   43      0
    43   0.80000   0.00000   0.25000   0.10000   90.00000   0.00000   0.00100    42   43   44      0
    44   0.80000   0.00000   0.35000   0.10000   90.00000   0.00000   0.00100    43   44   45      0
    45   0.80000   0.00000   0.45000   0.10000   90.00000   0.00000   0.00100    44   45   46      0
    46   0.80000   0.00000   0.55000   0.10000   90.00000   0.00000   0.00100    45   46   47      0
    47   0.80000   0.00000   0.65000   0.10000   90.00000   0.00000   0.00100    46   47   48      0
    48   0.80000   0.00000   0.75000   0.10000   90.00000   0.00000   0.00100    47   48   49      0
    49   0.80000   0.00000   0.85000   0.10000   90.00000   0.00000   0.00100    48   49   50      0
    50   0.80000   0.00000   0.95000   0.10000   90.00000   0.00000   0.00100    49   50    0      0
    51   1.00000   0.00000   0.05000   0.10000   90.00000   0.00000   0.00100     0   51   52      0
    52   1.00000   0.00000   0.15000   0.10000   90.00000   0.00000   0.00100    51   52   53      0
    53   1.00000   0.00000   0.25000   0.10000   90.00000   0.00000   0.00100    52   53   54      0
    54   1.00000   0.00000   0.35000   0.10000   90.00000   0.00000   0.00100    53   54   55      0
    55   1.00000   0.00000   0.45000   0.10000   90.00000   0.00000   0.00100    54   55   56      0
    56   1.00000   0.00000   0.55000   0.10000   90.00000   0.00000   0.00100    55   56   57      0
    57   1.00000   0.00000   0.65000   0.10000   90.00000   0.00000   0.00100    56   57   58      0
    58   1.00000   0.00000   0.75000   0.10000   90.00000   0.00000   0.00100    57   58   59      0
    59   1.00000   0.00000   0.85000   0.10000   90.00000   0.00000   0.00100    58   59   60      0
    60   1.00000   0.00000   0.95000   0.10000   90.00000   0.00000   0.00100    59   60    0      0
    61   1.20000   0.00000   0.05000   0.10000   90.00000   0.00000   0.00100     0   61   62      0
    62   1.20000   0.00000   0.15000   0.10000   90.00000   0.00000   0.00100    61   62   63      0
    63   1.20000   0.00000   0.25000   0.10000   90.00000   0.00000   0.00100    62   63   64      0
    64   1.20000   0.00000   0.35000   0.10000   90.00000   0.00000   0.00100    63   64   65      0
    65   1.20000   0.00000   0.45000   0.10000   90.00000   0.00000   0.00100    64   65   66      0
    66   1.20000   0.00000   0.55000   0.10000   90.00000   0.00000   0.00100    65   66   67      0
    67   1.20000   0.00000   0.65000   0.10000   90.00000   0.00000   0.00100    66   67   68      0
    68   1.20000   0.00000   0.75000   0.10000   90.00000   0.00000   0.00100    67   68   69      0
    69   1.20000   0.00000   0.85000   0.10000   90.00000   0.00000   0.00100    68   69   70      0
    70   1.20000   0.00000   0.95000   0.10000   90.00000   0.00000   0.00100    69   70    0      0
    71   1.40000   0.00000   0.05000   0.10000   90.00000   0.00000   0.00100     0   71   72      0
    72   1.40000   0.00000   0.15000   0.10000   90.00000   0.00000   0.00100    71   72   73      0
    73   1.40000   0.00000   0.25000   0.10000   90.00000   0.00000   0.00100    72   73   74      0
    74   1.40000   0.00000   0.35000   0.10000   90.00000   0.00000   0.00100    73   74   75      0
    75   1.40000   0.00000   0.45000   0.10000   90.00000   0.00000   0.00100    74   75   76      0
    76   1.40000   0.00000   0.55000   0.10000   90.00000   0.00000   0.00100    75   76   77      0
    77   1.40000   0.00000   0.65000   0.10000   90.00000   0.00000   0.00100    76   77   78      0
    78   1.40000   0.00000   0.75000   0.10000   90.00000   0.00000   0.00100    77   78   79      0
    79   1.40000   0.00000   0.85000   0.10000   90.00000   0.00000   0.00100    78   79   80      0
    80   1.40000   0.00000   0.95000   0.10000   90.00000   0.00000   0.00100    79   80    0      0
    81   1.60000   0.00000   0.05000   0.10000   90.00000   0.00000   0.00100     0   81   82      0
    82   1.60000   0.00000   0.15000   0.10000   90.00000   0.00000   0.00100    81   82   83      0
    83   1.60000   0.00000   0.25000   0.10000   90.00000   0.00000   0.00100    82   83   84      0
    84   1.60000   0.00000   0.35000   0.10000   90.00000   0.00000   0.00100    83   84   85      0
    85   1.60000   0.00000   0.45000   0.10000   90.00000   0.00000   0.00100    84   85   86      0
    86   1.60000   0.00000   0.55000   0.10000   90.00000   0.00000   0.00100    85   86   87      0
    87   1.60000   0.00000   0.65000   0.10000   90.00000   0.00000   0.00100    86   87   88      0
    88   1.60000   0.00000   0.75000   0.10000   90.00000   0.00000   0.00100    87   88   89      0
    89   1.60000   0.00000   0.85000   0.10000   90.00000   0.00000   0.00100    88   89   90      0
    90   1.60000   0.00000   0.95000   0.10000   90.00000   0.00000   0.00100    89   90    0      0
    91   1.80000   0.00000   0.05000   0.10000   90.00000   0.00000   0.00100     0   91   92      0
    92   1.80000   0.00000   0.15000   0.10000   90.00000   0.00000   0.00100    91   92   93      0
    93   1.80000   0.00000   0.25000   0.10000   90.00000   0.00000   0.00100    92   93   94      0
    94   1.80000   0.00000   0.35000   0.10000   90.00000   0.00000   0.00100    93   94   95      0
    95   1.80000   0.00000   0.45000   0.10000   90.00000   0.00000   0.00100    94   95   96      0
    96   1.80000   0.00000   0.55000   0.10000   90.00000   0.00000   0.00100    95   96   97      0
    97   1.80000   0.00000   0.65000   0.10000   90.00000   0.00000   0.00100    96   97   98      0
    98   1.80000   0.00000   0.75000   0.10000   90.00000   0.00000   0.00100    97   98   99      0
    99   1.80000   0.00000   0.85000   0.10000   90.00000   0.00000   0.00100    98   99  100      0
   100   1.80000   0.00000   0.95000   0.10000   90.00000   0.00000   0.00100    99  100    0      0
   101   0.00000   0.20000   0.05000   0.10000   90.00000   0.00000   0.00100     0  101  102      0
   102   0.00000   0.20000   0.15000   0.10000   90.00000   0.00000   0.00100   101  102  103      0
   103   0.00000   0.20000   0.25000   0.10000   90.00000   0.00000   0.00100   102  103  104      0
   104   0.00000   0.20000   0.35000   0.10000   90.00000   0.00000   0.00100   103  104  105      0
   105   0.00000   0.20000   0.45000   0.10000   90.00000   0.00000   0.00100   104  105  106      0
   106   0.00000   0.20000   0.55000   0.10000   90.00000   0.00000   0.00100   105  106  107      0
   107   0.00000   0.20000   0.65000   0.10000   90.00000   0.00000   0.00100   106  107  108      0
   108   0.00000   0.20000   0.75000   0.10000   90.00000   0.00000   0.00100   107  108  109      0
   109   0.00000   0.20000   0.85000   0.10000   90.00000   0.00000   0.00100   108  109  110      0
   110   0.00000   0.20000   0.95000   0.10000   90.00000   0.00000   0.00100   109  110    0      0
   111   0.20000   0.20000   0.05000   0.10000   90.00000   0.00000   0.00100     0  111  112      0
   112   0.20000   0.20000   0.15000   0.10000   90.00000   0.00000   0.00100   111  112  113      0
   113   0.20000   0.20000   0.25000   0.10000   90.00000   0.00000   0.00100   112  113  114      0
   114   0.20000   0.20000   0.35000   0.10000   90.00000   0.00000   0.00100   113  114  115      0
   115   0.20000   0.20000   0.45000   0.10000   90.00000   0.00000   0.00100   114  115  116      0
   116   0.20000   0.20000   0.55000   0.10000   90.00000   0.00000   0.00100   115  116  117      0
   117   0.20000   0.20000   0.65000   0.10000   90.00000   0.00000   0.00100   116  117  118      0
   118   0.20000   0.20000   0.75000   0.10000   90.00000   0.00000   0.00100   117  118  119      0
   119   0.20000   0.20000   0.85000   0.10000   90.00000   0.00000   0.00100   118  119  120      0
   120   0.20000   0.20000   0.95000   0.10000   90.00000   0.00000   0.00100   119  120    0      0
   121   0.40000   0.20000   0.05000   0.10000   90.00000   0.00000   0.00100     0  121  122      0
   122   0.40000   0.20000   0.15000   0.10000   90.00000   0.00000   0.00100   121  122  123      0
   123   0.40000   0.20000   0.25000   0.10000   90.00000   0.00000   0.00100   122  123  124      0
   124   0.40000   0.20000   0.35000   0.10000   90.00000   0.00000   0.00100   123  124  125      0
   125   0.40000   0.20000   0.45000   0.10000   90.00000   0.00000   0.00100   124  125  126      0
   126   0.40000   0.20000   0.55000   0.10000   90.00000   0.00000   0.00100   125  126  127      0
   127   0.40000   0.20000   0.65000   0.10000   90.00000   0.00000   0.00100   126  127  128      0
   128   0.40000   0.20000   0.75000   0.10000   90.00000   0.00000   0.00100   127  128  129      0
   129   0.40000   0.20000   0.85000   0.10000   90.00000   0.00000   0.00100   128  129  130      0
   130   0.40000   0.20000   0.95000   0.10000   90.00000   0.00000   0.00100   129  130    0      0
   131   0.60000   0.20000   0.05000   0.10000   90.00000   0.00000   0.00100     0  131  132      0
   132   0.60000   0.20000   0.15000   0.10000   90.00000   0.00000   0.00100   131  132  133      0
   133   0.60000   0.20000   0.25000   0.10000   90.00000   0.00000   0.00100   132  133  134      0
   134   0.60000   0.20000   0.35000   0.10000   90.00000   0.00000   0.00100   133  134  135      0
   135   0.60000   0.20000   0.45000   0.10000   90.00000   0.00000   0.00100   134  135  136      0
   136   0.60000   0.20000   0.55000   0.10000   90.00000   0.00000   0.00100   135  136  137      0
   137   0.60000   0.20000   0.65000   0.10000   90.00000   0.00000   0.00100   136  137  138      0
   138   0.60000   0.20000   0.75000   0.10000   90.00000   0.00000   0.00100   137  138  139      0
   139   0.60000   0.20000   0.85000   0.10000   90.00000   0.00000   0.00100   138  139  140      0
   140   0.60000   0.20000   0.95000   0.10000   90.00000   0.00000   0.00100   139  140    0      0
   141   0.80000   0.20000   0.05000   0.10000   90.00000   0.00000   0.00100     0  141  142      0
   142   0.80000   0.20000   0.15000   0.10000   90.00000   0.00000   0.00100   141  142  143      0
   143   0.80000   0.20000   0.25000   0.10000   90.00000   0.00000   0.00100   142  143  144      0
   144   0.80000   0.20000   0.35000   0.10000   90.00000   0.00000   0.00100   143  144  145      0
   145   0.80000   0.20000   0.45000   0.10000   90.00000   0.00000   0.00100   144  145  146      0
   146   0.80000   0.20000   0.55000   0.10000   90.00000   0.00000   0.00100   145  146  147      0
   147   0.80000   0.20000   0.65000   0.10000   90.00000   0.00000   0.00100   146  147  148      0
   148   0.80000   0.20000   0.75000   0.10000   90.00000   0.00000   0.00100   147  148  149      0
   149   0.80000   0.20000   0.85000   0.10000   90.00000   0.00000   0.00100   148  149  150      0
   150   0.80000   0.20000   0.95000   0.10000   90.00000   0.00000   0.00100   149  150    0      0
   151   1.00000   0.20000   0.05000   0.10000   90.00000   0.00000   0.00100     0  151  152      0
   152   1.00000   0.20000   0.15000   0.10000   90.00000   0.00000   0.00100   151  152  153      0
   153   1.00000   0.20000   0.25000   0.10000   90.00000   0.00000   0.00100   152  153  154      0
   154   1.00000   0.20000   0.35000   0.10000   90.00000   0.00000   0.00100   153  154  155      0
   155   1.00000   0.20000   0.45000   0.10000   90.00000   0.00000   0.00100   154  155  156      0
   156   1.00000   0.20000   0.55000   0.10000   90.00000   0.00000   0.00100   155  156  157      0
   157   1.00000   0.20000   0.65000   0.10000   90.00000   0.00000   0.00100   156  157  158      0
   158   1.00000   0.20000   0.75000   0.10000   90.00000   0.00000   0.00100   157  158  159      0
   159   1.00000   0.20000   0.85000   0.10000   90.00000   0.00000   0.00100   158  159  160      0
   160   1.00000   0.20000   0.95000   0.10000   90.00000   0.00000   0.00100   159  160    0      0
   161   1.20000   0.20000   0.05000   0.10000   90.00000   0.00000   0.00100     0  161  162      0
   162   1.20000   0.20000   0.15000   0.10000   90.00000   0.00000   0.00100   161  162  163      0
   163   1.20000   0.20000   0.25000   0.10000   90.00000   0.00000   0.00100   162  163  164      0
   164   1.20000   0.20000   0.35000   0.10000   90.00000   0.00000   0.00100   163  164  165      0
   165   1.20000   0.20000   0.45000   0.10000   90.00000   0.00000   0.00100   164  165  166      0
   166   1.20000   0.20000   0.55000   0.10000   90.00000   0.00000   0.00100   165  166  167      0
   167   1.20000   0.20000   0.65000   0.10000   90.00000   0.00000   0.00100   166  167  168      0
   168   1.20000   0.20000   0.75000   0.10000   90.00000   0.00000   0.00100   167  168  169      0
   169   1.20000   0.20000   0.85000   0.10000   90.00000   0.00000   0.00100   168  169  170      0
   170   1.20000   0.20000   0.95000   0.10000   90.00000   0.00000   0.00100   169  170    0      0
   171   1.40000   0.20000   0.05000   0.10000   90.00000   0.00000   0.00100     0  171  172      0
   172   1.40000   0.20000   0.15000   0.10000   90.00000   0.00000   0.00100   171  172  173      0
   173   1.40000   0.20000   0.25000   0.10000   90.00000   0.00000   0.00100   172  173  174      0
   174   1.40000   0.20000   0.35000   0.10000   90.00000   0.00000   0.00100   173  174  175      0
   175   1.40000   0.20000   0.45000   0.10000   90.00000   0.00000   0.00100   174  175  176      0
   176   1.40000   0.20000   0.55000   0.10000   90.00000   0.00000   0.00100   175  176  177      0
   177   1.40000   0.20000   0.65000   0.10000   90.00000   0.00000   0.00100   176  177  178      0
   178   1.40000   0.20000   0.75000   0.10000   90.00000   0.00000   0.00100   177  178  179      0
   179   1.40000   0.20000   0.85000   0.10000   90.00000   0.00000   0.00100   178  179  180      0
   180   1.40000   0.20000   0.95000   0.10000   90.00000   0.00000   0.00100   179  180    0      0
   181   1.60000   0.20000   0.05000   0.10000   90.00000   0.00000   0.00100     0  181  182      0
   182   1.60000   0.20000   0.15000   0.10000   90.00000   0.00000   0.00100   181  182  183      0
   183   1.60000   0.20000   0.25000   0.10000   90.00000   0.00000   0.00100   182  183  184      0
   184   1.60000   0.20000   0.35000   0.10000   90.00000   0.00000   0.00100   183  184  185      0
   185   1.60000   0.20000   0.45000   0.10000   90.00000   0.00000   0.00100   184  185  186      0
   186   1.60000   0.20000   0.55000   0.10000   90.00000   0.00000   0.00100   185  186  187      0
   187   1.60000   0.20000   0.65000   0.10000   90.00000   0.00000   0.00100   186  187  188      0
   188   1.60000   0.20000   0.75000   0.10000   90.00000   0.00000   0.00100   187  188  189      0
   189   1.60000   0.20000   0.85000   0.10000   90.00000   0.00000   0.00100   188  189  190      0
   190   1.60000   0.20000   0.95000   0.10000   90.00000   0.00000   0.00100   189  190    0      0
   191   1.80000   0.20000   0.05000   0.10000   90.00000   0.00000   0.00100     0  191  192      0
   192   1.80000   0.20000   0.15000   0.10000   90.00000   0.00000   0.00100   191  192  193      0
   193   1.80000   0.20000   0.25000   0.10000   90.00000   0.00000   0.00100   192  193  194      0
   194   1.80000   0.20000   0.35000   0.10000   90.00000   0.00000   0.00100   193  194  195      0
   195   1.80000   0.20000   0.45000   0.10000   90.00000   0.00000   0.00100   194  195  196      0
   196   1.80000   0.20000   0.55000   0.10000   90.00000   0.00000   0.00100   195  196  197      0
   197   1.80000   0.20000   0.65000   0.10000   90.00000   0.00000   0.00100   196  197  198      0
   198   1.80000   0.20000   0.75000   0.10000   90.00000   0.00000   0.00100   197  198  199      0
   199   1.80000   0.20000   0.85000   0.10000   90.00000   0.00000   0.00100   198  199  200      0
   200   1.80000   0.20000   0.95000   0.10000   90.00000   0.00000   0.00100   199  200    0      0
   201   0.00000   0.40000   0.05000   0.10000   90.00000   0.00000   0.00100     0  201  202      0
   202   0.00000   0.40000   0.15000   0.10000   90.00000   0.00000   0.00100   201  202  203      0
   203   0.00000   0.40000   0.25000   0.10000   90.00000   0.00000   0.00100   202  203  204      0
   204   0.00000   0.40000   0.35000   0.10000   90.00000   0.00000   0.00100   203  204  205      0
   205   0.00000   0.40000   0.45000   0.10000   90.00000   0.00000   0.00100   204  205  206      0
   206   0.00000   0.40000   0.55000   0.10000   90.00000   0.00000   0.00100   205  206  207      0
   207   0.00000   0.40000   0.65000   0.10000   90.00000   0.00000   0.00100   206  207  208      0
   208   0.00000   0.40000   0.75000   0.10000   90.00000   0.00000   0.00100   207  208  209      0
   209   0.00000   0.40000   0.85000   0.10000   90.00000   0.00000   0.00100   208  209  210      0
   210   0.00000   0.40000   0.95000   0.10000   90.00000   0.00000   0.00100   209  210    0      0
   211   0.20000   0.40000   0.05000   0.10000   90.00000   0.00000   0.00100     0  211  212      0
   212   0.20000   0.40000   0.15000   0.10000   90.00000   0.00000   0.00100   211  212  213      0
   213   0.20000   0.40000   0.25000   0.10000   90.00000   0.00000   0.00100   212  213  214      0
   214   0.20000   0.40000   0.35000   0.10000   90.00000   0.00000   0.00100   213  214  215      0
   215   0.20000   0.40000   0.45000   0.10000   90.00000   0.00000   0.00100   214  215  216      0
   216   0.20000   0.40000   0.55000   0.10000   90.00000   0.00000   0.00100   215  216  217      0
   217   0.20000   0.40000   0.65000   0.10000   90.00000   0.00000   0.00100   216  217  218      0
   218   0.20000   0.40000   0.75000   0.10000   90.00000   0.00000   0.00100   217  218  219      0
   219   0.20000   0.40000   0.85000   0.10000   90.00000   0.00000   0.00100   218  219  220      0
   220   0.20000   0.40000   0.95000   0.10000   90.00000   0.00000   0.00100   219  220    0      0
   221   0.40000   0.40000   0.05000   0.10000   90.00000   0.00000   0.00100     0  221  222      0
   222   0.40000   0.40000   0.15000   0.10000   90.00000   0.00000   0.00100   221  222  223      0
   223   0.40000   0.40000   0.25000   0.10000   90.00000   0.00000   0.00100   222  223  224      0
   224   0.40000   0.40000   0.35000   0.10000   90.00000   0.00000   0.00100   223  224  225      0
   225   0.40000   0.40000   0.45000   0.10000   90.00000   0.00000   0.00100   224  225  226      0
   226   0.40000   0.40000   0.55000   0.10000   90.00000   0.00000   0.00100   225  226  227      0
   227   0.40000   0.40000   0.65000   0.10000   90.00000   0.00000   0.00100   226  227  228      0
   228   0.40000   0.40000   0.75000   0.10000   90.00000   0.00000   0.00100   227  228  229      0
   229   0.40000   0.40000   0.85000   0.10000   90.00000   0.00000   0.00100   228  229  230      0
   230   0.40000   0.40000   0.95000   0.10000   90.00000   0.00000   0.00100   229  230    0      0
   231   0.60000   0.40000   0.05000   0.10000   90.00000   0.00000   0.00100     0  231  232      0
   232   0.60000   0.40000   0.15000   0.10000   90.00000   0.00000   0.00100   231  232  233      0
   233   0.60000   0.40000   0.25000   0.10000   90.00000   0.00000   0.00100   232  233  234      0
   234   0.60000   0.40000   0.35000   0.10000   90.00000   0.00000   0.00100   233  234  235      0
   235   0.60000   0.40000   0.45000   0.10000   90.00000   0.00000   0.00100   234  235  236      0
   236   0.60000   0.40000   0.55000   0.10000   90.00000   0.00000   0.00100   235  236  237      0
   237   0.60000   0.40000   0.65000   0.10000   90.00000   0.00000   0.00100   236  237  238      0
   238   0.60000   0.40000   0.75000   0.10000   90.00000   0.00000   0.00100   237  238  239      0
   239   0.60000   0.40000   0.85000   0.10000   90.00000   0.00000   0.00100   238  239  240      0
   240   0.60000   0.40000   0.95000   0.10000   90.00000   0.00000   0.00100   239  240    0      0
   241   0.80000   0.40000   0.05000   0.10000   90.00000   0.00000   0.00100     0  241  242      0
   242   0.80000   0.40000   0.15000   0.10000   90.00000   0.00000   0.00100   241  242  243      0
   243   0.80000   0.40000   0.25000   0.10000   90.00000   0.00000   0.00100   242  243  244      0
   244   0.80000   0.40000   0.35000   0.10000   90.00000   0.00000   0.00100   243  244  245      0
   245   0.80000   0.40000   0.45000   0.10000   90.00000   0.00000   0.00100   244  245  246      0
   246   0.80000   0.40000   0.55000   0.10000   90.00000   0.00000   0.00100   245  246  247      0
   247   0.80000   0.40000   0.65000   0.10000   90.00000   0.00000   0.00100   246  247  248      0
   248   0.80000   0.40000   0.75000   0.10000   90.00000   0.00000   0.00100   247  248  249      0
   249   0.80000   0.40000   0.85000   0.10000   90.00000   0.00000   0.00100   248  249  250      0
   250   0.80000   0.40000   0.95000   0.10000   90.00000   0.00000   0.00100   249  250    0      0
   251   1.00000   0.40000   0.05000   0.10000   90.00000   0.00000   0.00100     0  251  252      0
   252   1.00000   0.40000   0.15000   0.10000   90.00000   0.00000   0.00100   251  252  253      0
   253   1.00000   0.40000   0.25000   0.10000   90.00000   0.00000   0.00100   252  253  254      0
   254   1.00000   0.40000   0.35000   0.10000   90.00000   0.00000   0.00100   253  254  255      0
   255   1.00000   0.40000   0.45000   0.10000   90.00000   0.00000   0.00100   254  255  256      0
   256   1.00000   0.40000   0.55000   0.10000   90.00000   0.00000   0.00100   255  256  257      0
   257   1.00000   0.40000   0.65000   0.10000   90.00000   0.00000   0.00100   256  257  258      0
   258   1.00000   0.40000   0.75000   0.10000   90.00000   0.00000   0.00100   257  258  259      0
   259   1.00000   0.40000   0.85000   0.10000   90.00000   0.00000   0.00100   258  259  260      0
   260   1.00000   0.40000   0.95000   0.10000   90.00000   0.00000   0.00100   259  260    0      0
   261   1.20000   0.40000   0.05000   0.10000   90.00000   0.00000   0.00100     0  261  262      0
   262   1.20000   0.40000   0.15000   0.10000   90.00000   0.00000   0.00100   261  262  263      0
   263   1.20000   0.40000   0.25000   0.10000   90.00000   0.00000   0.00100   262  263  264      0
   264   1.20000   0.40000   0.35000   0.10000   90.00000   0.00000   0.00100   263  264  265      0
   265   1.20000   0.40000   0.45000   0.10000   90.00000   0.00000   0.00100   264  265  266      0
   266   1.20000   0.40000   0.55000   0.10000   90.00000   0.00000   0.00100   265  266  267      0
   267   1.20000   0.40000   0.65000   0.10000   90.00000   0.00000   0.00100   266  267  268      0
   268   1.20000   0.40000   0.75000   0.10000   90.00000   0.00000   0.00100   267  268  269      0
   269   1.20000   0.40000   0.85000   0.10000   90.00000   0.00000   0.00100   268  269  270      0
   270   1.20000   0.40000   0.95000   0.10000   90.00000   0.00000   0.00100   269  270    0      0
   271   1.40000   0.40000   0.05000   0.10000   90.00000   0.00000   0.00100     0  271  272      0
   272   1.40000   0.40000   0.15000   0.10000   90.00000   0.00000   0.00100   271  272  273      0
   273   1.40000   0.40000   0.25000   0.10000   90.00000   0.00000   0.00100   272  273  274      0
   274   1.40000   0.40000   0.35000   0.10000   90.00000   0.00000   0.00100   273  274  275      0
   275   1.40000   0.40000   0.45000   0.10000   90.00000   0.00000   0.00100   274  275  276      0
   276   1.40000   0.40000   0.55000   0.10000   90.00000   0.00000   0.00100   275  276  277      0
   277   1.40000   0.40000   0.65000   0.10000   90.00000   0.00000   0.00100   276  277  278      0
   278   1.40000   0.40000   0.75000   0.10000   90.00000   0.00000   0.00100   277  278  279      0
   279   1.40000   0.40000   0.85000   0.10000   90.00000   0.00000   0.00100   278  279  280      0
   280   1.40000   0.40000   0.95000   0.10000   90.00000   0.00000   0.00100   279  280    0      0
   281   1.60000   0.40000   0.05000   0.10000   90.00000   0.00000   0.00100     0  281  282      0
   282   1.60000   0.40000   0.15000   0.10000   90.00000   0.00000   0.00100   281  282  283      0
   283   1.60000   0.40000   0.25000   0.10000   90.00000   0.00000   0.00100   282  283  284      0
   284   1.60000   0.40000   0.35000   0.10000   90.00000   0.00000   0.00100   283  284  285      0
   285   1.60000   0.40000   0.45000   0.10000   90.00000   0.00000   0.00100   284  285  286      0
   286   1.60000   0.40000   0.55000   0.10000   90.00000   0.00000   0.00100   285  286  287      0
   287   1.60000   0.40000   0.65000   0.10000   90.00000   0.00000   0.00100   286  287  288      0
   288   1.60000   0.40000   0.75000   0.10000   90.00000   0.00000   0.00100   287  288  289      0
   289   1.60000   0.40000   0.85000   0.10000   90.00000   0.00000   0.00100   288  289  290      0
   290   1.60000   0.40000   0.95000   0.10000   90.00000   0.00000   0.00100   289  290    0      0
   291   1.80000   0.40000   0.05000   0.10000   90.00000   0.00000   0.00100     0  291  292      0
   292   1.80000   0.40000   0.15000   0.10000   90.00000   0.00000   0.00100   291  292  293      0
   293   1.80000   0.40000   0.25000   0.10000   90.00000   0.00000   0.00100   292  293  294      0
   294   1.80000   0.40000   0.35000   0.10000   90.00000   0.00000   0.00100   293  294  295      0
   295   1.80000   0.40000   0.45000   0.10000   90.00000   0.00000   0.00100   294  295  296      0
   296   1.80000   0.40000   0.55000   0.10000   90.00000   0.00000   0.00100   295  296  297      0
   297   1.80000   0.40000   0.65000   0.10000   90.00000   0.00000   0.00100   296  297  298      0
   298   1.80000   0.40000   0.75000   0.10000   90.00000   0.00000   0.00100   297  298  299      0
   299   1.80000   0.40000   0.85000   0.10000   90.00000   0.00000   0.00100   298  299  300      0
   300   1.80000   0.40000   0.95000   0.10000   90.00000   0.00000   0.00100   299  300    0      0
   301   0.00000   0.60000   0.05000   0.10000   90.00000   0.00000   0.00100     0  301  302      0
   302   0.00000   0.60000   0.15000   0.10000   90.00000   0.00000   0.00100   301  302  303      0
   303   0.00000   0.60000   0.25000   0.10000   90.00000   0.00000   0.00100   302  303  304      0
   304   0.00000   0.60000   0.35000   0.10000   90.00000   0.00000   0.00100   303  304  305      0
   305   0.00000   0.60000   0.45000   0.10000   90.00000   0.00000   0.00100   304  305  306      0
   306   0.00000   0.60000   0.55000   0.10000   90.00000   0.00000   0.00100   305  306  307      0
   307   0.00000   0.60000   0.65000   0.10000   90.00000   0.00000   0.00100   306  307  308      0
   308   0.00000   0.60000   0.75000   0.10000   90.00000   0.00000   0.00100   307  308  309      0
   309   0.00000   0.60000   0.85000   0.10000   90.00000   0.00000   0.00100   308  309  310      0
   310   0.00000   0.60000   0.95000   0.10000   90.00000   0.00000   0.00100   309  310    0      0
   311   0.20000   0.60000   0.05000   0.10000   90.00000   0.00000   0.00100     0  311  312      0
   312   0.20000   0.60000   0.15000   0.10000   90.00000   0.00000   0.00100   311  312  313      0
   313   0.20000   0.60000   0.25000   0.10000   90.00000   0.00000   0.00100   312  313  314      0
   314   0.20000   0.60000   0.35000   0.10000   90.00000   0.00000   0.00100   313  314  315      0
   315   0.20000   0.60000   0.45000   0.10000   90.00000   0.00000   0.00100   314  315  316      0
   316   0.20000   0.60000   0.55000   0.10000   90.00000   0.00000   0.00100   315  316  317      0
   317   0.20000   0.60000   0.65000   0.10000   90.00000   0.00000   0.00100   316  317  318      0
   318   0.20000   0.60000   0.75000   0.10000   90.00000   0.00000   0.00100   317  318  319      0
   319   0.20000   0.60000   0.85000   0.10000   90.00000   0.00000   0.00100   318  319  320      0
   320   0.20000   0.60000   0.95000   0.10000   90.00000   0.00000   0.00100   319  320    0      0
   321   0.40000   0.60000   0.05000   0.10000   90.00000   0.00000   0.00100     0  321  322      0
   322   0.40000   0.60000   0.15000   0.10000   90.00000   0.00000   0.00100   321  322  323      0
   323   0.40000   0.60000   0.25000   0.10000   90.00000   0.00000   0.00100   322  323  324      0
   324   0.40000   0.60000   0.35000   0.10000   90.00000   0.00000   0.00100   323  324  325      0
   325   0.40000   0.60000   0.45000   0.10000   90.00000   0.00000   0.00100   324  325  326      0
   326   0.40000   0.60000   0.55000   0.10000   90.00000   0.00000   0.00100   325  326  327      0
   327   0.40000   0.60000   0.65000   0.10000   90.00000   0.00000   0.00100   326  327  328      0
   328   0.40000   0.60000   0.75000   0.10000   90.00000   0.00000   0.00100   327  328  329      0
   329   0.40000   0.60000   0.85000   0.10000   90.00000   0.00000   0.00100   328  329  330      0
   330   0.40000   0.60000   0.95000   0.10000   90.00000   0.00000   0.00100   329  330    0      0
   331   0.60000   0.60000   0.05000   0.10000   90.00000   0.00000   0.00100     0  331  332      0
   332   0.60000   0.60000   0.15000   0.10000   90.00000   0.00000   0.00100   331  332  333      0
   333   0.60000   0.60000   0.25000   0.10000   90.00000   0.00000   0.00100   332  333  334      0
   334   0.60000   0.60000   0.35000   0.10000   90.00000   0.00000   0.00100   333  334  335      0
   335   0.60000   0.60000   0.45000   0.10000   90.00000   0.00000   0.00100   334  335  336      0
   336   0.60000   0.60000   0.55000   0.10000   90.00000   0.00000   0.00100   335  336  337      0
   337   0.60000   0.60000   0.65000   0.10000   90.00000   0.00000   0.00100   336  337  338      0
   338   0.60000   0.60000   0.75000   0.10000   90.00000   0.00000   0.00100   337  338  339      0
   339   0.60000   0.60000   0.85000   0.10000   90.00000   0.00000   0.00100   338  339  340      0
   340   0.60000   0.60000   0.95000   0.10000   90.00000   0.00000   0.00100   339  340    0      0
   341   0.80000   0.60000   0.05000   0.10000   90.00000   0.00000   0.00100     0  341  342      0
   342   0.80000   0.60000   0.15000   0.10000   90.00000   0.00000   0.00100   341  342  343      0
   343   0.80000   0.60000   0.25000   0.10000   90.00000   0.00000   0.00100   342  343  344      0
   344   0.80000   0.60000   0.35000   0.10000   90.00000   0.00000   0.00100   343  344  345      0
   345   0.80000   0.60000   0.45000   0.10000   90.00000   0.00000   0.00100   344  345  346      0
   346   0.80000   0.60000   0.55000   0.10000   90.00000   0.00000   0.00100   345  346  347      0
   347   0.80000   0.60000   0.65000   0.10000   90.00000   0.00000   0.00100   346  347  348      0
   348   0.80000   0.60000   0.75000   0.10000   90.00000   0.00000   0.00100   347  348  349      0
   349   0.80000   0.60000   0.85000   0.10000   90.00000   0.00000   0.00100   348  349  350      0
   350   0.80000   0.60000   0.95000   0.10000   90.00000   0.00000   0.00100   349  350    0      0
   351   1.00000   0.60000   0.05000   0.10000   90.00000   0.00000   0.00100     0  351  352      0
   352   1.00000   0.60000   0.15000   0.10000   90.00000   0.00000   0.00100   351  352  353      0
   353   1.00000   0.60000   0.25000   0.10000   90.00000   0.00000   0.00100   352  353  354      0
   354   1.00000   0.60000   0.35000   0.10000   90.00000   0.00000   0.00100   353  354  355      0
   355   1.00000   0.60000   0.45000   0.10000   90.00000   0.00000   0.00100   354  355  356      0
   356   1.00000   0.60000   0.55000   0.10000   90.00000   0.00000   0.00100   355  356  357      0
   357   1.00000   0.60000   0.65000   0.10000   90.00000   0.00000   0.00100   356  357  358      0
   358   1.00000   0.60000   0.75000   0.10000   90.00000   0.00000   0.00100   357  358  359      0
   359   1.00000   0.60000   0.85000   0.10000   90.00000   0.00000   0.00100   358  359  360      0
   360   1.00000   0.60000   0.95000   0.10000   90.00000   0.00000   0.00100   359  360    0      0
   361   1.20000   0.60000   0.05000   0.10000   90.00000   0.00000   0.00100     0  361  362      0
   362   1.20000   0.60000   0.15000   0.10000   90.00000   0.00000   0.00100   361  362  363      0
   363   1.20000   0.60000   0.25000   0.10000   90.00000   0.00000   0.00100   362  363  364      0
   364   1.20000   0.60000   0.35000   0.10000   90.00000   0.00000   0.00100   363  364  365      0
   365   1.20000   0.60000   0.45000   0.10000   90.00000   0.00000   0.00100   364  365  366      0
   366   1.20000   0.60000   0.55000   0.10000   90.00000   0.00000   0.00100   365  366  367      0
   367   1.20000   0.60000   0.65000   0.10000   90.00000   0.00000   0.00100   366  367  368      0
   368   1.20000   0.60000   0.75000   0.10000   90.00000   0.00000   0.00100   367  368  369      0
   369   1.20000   0.60000   0.85000   0.10000   90.00000   0.00000   0.00100   368  369  370      0
   370   1.20000   0.60000   0.95000   0.10000   90.00000   0.00000   0.00100   369  370    0      0
   371   1.40000   0.60000   0.05000   0.10000   90.00000   0.00000   0.00100     0  371  372      0
   372   1.40000   0.60000   0.15000   0.10000   90.00000   0.00000   0.00100   371  372  373      0
   373   1.40000   0.60000   0.25000   0.10000   90.00000   0.00000   0.00100   372  373  374      0
   374   1.40000   0.60000   0.35000   0.10000   90.00000   0.00000   0.00100   373  374  375      0
   375   1.40000   0.60000   0.45000   0.10000   90.00000   0.00000   0.00100   374  375  376      0
   376   1.40000   0.60000   0.55000   0.10000   90.00000   0.00000   0.00100   375  376  377      0
   377   1.40000   0.60000   0.65000   0.10000   90.00000   0.00000   0.00100   376  377  378      0
   378   1.40000   0.60000   0.75000   0.10000   90.00000   0.00000   0.00100   377  378  379      0
   379   1.40000   0.60000   0.85000   0.10000   90.00000   0.00000   0.00100   378  379  380      0
   380   1.40000   0.60000   0.95000   0.10000   90.00000   0.00000   0.00100   379  380    0      0
   381   1.60000   0.60000   0.05000   0.10000   90.00000   0.00000   0.00100     0  381  382      0
   382   1.60000   0.60000   0.15000   0.10000   90.00000   0.00000   0.00100   381  382  383      0
   383   1.60000   0.60000   0.25000   0.10000   90.00000   0.00000   0.00100   382  383  384      0
   384   1.60000   0.60000   0.35000   0.10000   90.00000   0.00000   0.00100   383  384  385      0
   385   1.60000   0.60000   0.45000   0.10000   90.00000   0.00000   0.00100   384  385  386      0
   386   1.60000   0.60000   0.55000   0.10000   90.00000   0.00000   0.00100   385  386  387      0
   387   1.60000   0.60000   0.65000   0.10000   90.00000   0.00000   0.00100   386  387  388      0
   388   1.60000   0.60000   0.75000   0.10000   90.00000   0.00000   0.00100   387  388  389      0
   389   1.60000   0.60000   0.85000   0.10000   90.00000   0.00000   0.00100   388  389  390      0
   390   1.60000   0.60000   0.95000   0.10000   90.00000   0.00000   0.00100   389  390    0      0
   391   1.80000   0.60000   0.05000   0.10000   90.00000   0.00000   0.00100     0  391  392      0
   392   1.80000   0.60000   0.15000   0.10000   90.00000   0.00000   0.00100   391  392  393      0
   393   1.80000   0.60000   0.25000   0.10000   90.00000   0.00000   0.00100   392  393  394      0
   394   1.80000   0.60000   0.35000   0.10000   90.00000   0.00000   0.00100   393  394  395      0
   395   1.80000   0.60000   0.45000   0.10000   90.00000   0.00000   0.00100   394  395  396      0
   396   1.80000   0.60000   0.55000   0.10000   90.00000   0.00000   0.00100   395  396  397      0
   397   1.80000   0.60000   0.65000   0.10000   90.00000   0.00000   0.00100   396  397  398      0
   398   1.80000   0.60000   0.75000   0.10000   90.00000   0.00000   0.00100   397  398  399      0
   399   1.80000   0.60000   0.85000   0.10000   90.00000   0.00000   0.00100   398  399  400      0
   400   1.80000   0.60000   0.95000   0.10000   90.00000   0.00000   0.00100   399  400    0      0
   401   0.00000   0.80000   0.05000   0.10000   90.00000   0.00000   0.00100     0  401  402      0
   402   0.00000   0.80000   0.15000   0.10000   90.00000   0.00000   0.00100   401  402  403      0
   403   0.00000   0.80000   0.25000   0.10000   90.00000   0.00000   0.00100   402  403  404      0
   404   0.00000   0.80000   0.35000   0.10000   90.00000   0.00000   0.00100   403  404  405      0
   405   0.00000   0.80000   0.45000   0.10000   90.00000   0.00000   0.00100   404  405  406      0
   406   0.00000   0.80000   0.55000   0.10000   90.00000   0.00000   0.00100   405  406  407      0
   407   0.00000   0.80000   0.65000   0.10000   90.00000   0.00000   0.00100   406  407  408      0
   408   0.00000   0.80000   0.75000   0.10000   90.00000   0.00000   0.00100   407  408  409      0
   409   0.00000   0.80000   0.85000   0.10000   90.00000   0.00000   0.00100   408  409  410      0
   410   0.00000   0.80000   0.95000   0.10000   90.00000   0.00000   0.00100   409  410    0      0
   411   0.20000   0.80000   0.05000   0.10000   90.00000   0.00000   0.00100     0  411  412      0
   412   0.20000   0.80000   0.15000   0.10000   90.00000   0.00000   0.00100   411  412  413      0
   413   0.20000   0.80000   0.25000   0.10000   90.00000   0.00000   0.00100   412  413  414      0
   414   0.20000   0.80000   0.35000   0.10000   90.00000   0.00000   0.00100   413  414  415      0
   415   0.20000   0.80000   0.45000   0.10000   90.00000   0.00000   0.00100   414  415  416      0
   416   0.20000   0.80000   0.55000   0.10000   90.00000   0.00000   0.00100   415  416  417      0
   417   0.20000   0.80000   0.65000   0.10000   90.00000   0.00000   0.00100   416  417  418      0
   418   0.20000   0.80000   0.75000   0.10000   90.00000   0.00000   0.00100   417  418  419      0
   419   0.20000   0.80000   0.85000   0.10000   90.00000   0.00000   0.00100   418  419  420      0
   420   0.20000   0.80000   0.95000   0.10000   90.00000   0.00000   0.00100   419  420    0      0
   421   0.40000   0.80000   0.05000   0.10000   90.00000   0.00000   0.00100     0  421  422      0
   422   0.40000   0.80000   0.15000   0.10000   90.00000   0.00000   0.00100   421  422  423      0
   423   0.40000   0.80000   0.25000   0.10000   90.00000   0.00000   0.00100   422  423  424      0
   424   0.40000   0.80000   0.35000   0.10000   90.00000   0.00000   0.00100   423  424  425      0
   425   0.40000   0.80000   0.45000   0.10000   90.00000   0.00000   0.00100   424  425  426      0
   426   0.40000   0.80000   0.55000   0.10000   90.00000   0.00000   0.00100   425  426  427      0
   427   0.40000   0.80000   0.65000   0.10000   90.00000   0.00000   0.00100   426  427  428      0
   428   0.40000   0.80000   0.75000   0.10000   90.00000   0.00000   0.00100   427  428  429      0
   429   0.40000   0.80000   0.85000   0.10000   90.00000   0.00000   0.00100   428  429  430      0
   430   0.40000   0.80000   0.95000   0.10000   90.00000   0.00000   0.00100   429  430    0      0
   431   0.60000   0.80000   0.05000   0.10000   90.00000   0.00000   0.00100     0  431  432      0
   432   0.60000   0.80000   0.15000   0.10000   90.00000   0.00000   0.00100   431  432  433      0
   433   0.60000   0.80000   0.25000   0.10000   90.00000   0.00000   0.00100   432  433  434      0
   434   0.60000   0.80000   0.35000   0.10000   90.00000   0.00000   0.00100   433  434  435      0
   435   0.60000   0.80000   0.45000   0.10000   90.00000   0.00000   0.00100   434  435  436      0
   436   0.60000   0.80000   0.55000   0.10000   90.00000   0.00000   0.00100   435  436  437      0
   437   0.60000   0.80000   0.65000   0.10000   90.00000   0.00000   0.00100   436  437  438      0
   438   0.60000   0.80000   0.75000   0.10000   90.00000   0.00000   0.00100   437  438  439      0
   439   0.60000   0.80000   0.85000   0.10000   90.00000   0.00000   0.00100   438  439  440      0
   440   0.60000   0.80000   0.95000   0.10000   90.00000   0.00000   0.00100   439  440    0      0
   441   0.80000   0.80000   0.05000   0.10000   90.00000   0.00000   0.00100     0  441  442      0
   442   0.80000   0.80000   0.15000   0.10000   90.00000   0.00000   0.00100   441  442  443      0
   443   0.80000   0.80000   0.25000   0.10000   90.00000   0.00000   0.00100   442  443  444      0
   444   0.80000   0.80000   0.35000   0.10000   90.00000   0.00000   0.00100   443  444  445      0
   445   0.80000   0.80000   0.45000   0.10000   90.00000   0.00000   0.00100   444  445  446      0
   446   0.80000   0.80000   0.55000   0.10000   90.00000   0.00000   0.00100   445  446  447      0
   447   0.80000   0.80000   0.65000   0.10000   90.00000   0.00000   0.00100   446  447  448      0
   448   0.80000   0.80000   0.75000   0.10000   90.00000   0.00000   0.00100   447  448  449      0
   449   0.80000   0.80000   0.85000   0.10000   90.00000   0.00000   0.00100   448  449  450      0
   450   0.80000   0.80000   0.95000   0.10000   90.00000   0.00000   0.00100   449  450    0      0
   451   1.00000   0.80000   0.05000   0.10000   90.00000   0.00000   0.00100     0  451  452      0
   452   1.00000   0.80000   0.15000   0.10000   90.00000   0.00000   0.00100   451  452  453      0
   453   1.00000   0.80000   0.25000   0.10000   90.00000   0.00000   0.00100   452  453  454      0
   454   1.00000   0.80000   0.35000   0.10000   90.00000   0.00000   0.00100   453  454  455      0
   455   1.00000   0.80000   0.45000   0.10000   90.00000   0.00000   0.00100   454  455  456      0
   456   1.00000   0.80000   0.55000   0.10000   90.00000   0.00000   0.00100   455  456  457      0
   457   1.00000   0.80000   0.65000   0.10000   90.00000   0.00000   0.00100   456  457  458      0
   458   1.00000   0.80000   0.75000   0.10000   90.00000   0.00000   0.00100   457  458  459      0
   459   1.00000   0.80000   0.85000   0.10000   90.00000   0.00000   0.00100   458  459  460      0
   460   1.00000   0.80000   0.95000   0.10000   90.00000   0.00000   0.00100   459  460    0      0
   461   1.20000   0.80000   0.05000   0.10000   90.00000   0.00000   0.00100     0  461  462      0
   462   1.20000   0.80000   0.15000   0.10000   90.00000   0.00000   0.00100   461  462  463      0
   463   1.20000   0.80000   0.25000   0.10000   90.00000   0.00000   0.00100   462  463  464      0
   464   1.20000   0.80000   0.35000   0.10000   90.00000   0.00000   0.00100   463  464  465      0
   465   1.20000   0.80000   0.45000   0.10000   90.00000   0.00000   0.00100   464  465  466      0
   466   1.20000   0.80000   0.55000   0.10000   90.00000   0.00000   0.00100   465  466  467      0
   467   1.20000   0.80000   0.65000   0.10000   90.00000   0.00000   0.00100   466  467  468      0
   468   1.20000   0.80000   0.75000   0.10000   90.00000   0.00000   0.00100   467  468  469      0
   469   1.20000   0.80000   0.85000   0.10000   90.00000   0.00000   0.00100   468  469  470      0
   470   1.20000   0.80000   0.95000   0.10000   90.00000   0.00000   0.00100   469  470    0      0
   471   1.40000   0.80000   0.05000   0.10000   90.00000   0.00000   0.00100     0  471  472      0
   472   1.40000   0.80000   0.15000   0.10000   90.00000   0.00000   0.00100   471  472  473      0
   473   1.40000   0.80000   0.25000   0.10000   90.00000   0.00000   0.00100   472  473  474      0
   474   1.40000   0.80000   0.35000   0.10000   90.00000   0.00000   0.00100   473  474  475      0
   475   1.40000   0.80000   0.45000   0.10000   90.00000   0.00000   0.00100   474  475  476      0
   476   1.40000   0.80000   0.55000   0.10000   90.00000   0.00000   0.00100   475  476  477      0
   477   1.40000   0.80000   0.65000   0.10000   90.00000   0.00000   0.00100   476  477  478      0
   478   1.40000   0.80000   0.75000   0.10000   90.00000   0.00000   0.00100   477  478  479      0
   479   1.40000   0.80000   0.85000   0.10000   90.00000   0.00000   0.00100   478  479  480      0
   480   1.40000   0.80000   0.95000   0.10000   90.00000   0.00000   0.00100   479  480    0      0
   481   1.60000   0.80000   0.05000   0.10000   90.00000   0.00000   0.00100     0  481  482      0
   482   1.60000   0.80000   0.15000   0.10000   90.00000   0.00000   0.00100   481  482  483      0
   483   1.60000   0.80000   0.25000   0.10000   90.00000   0.00000   0.00100   482  483  484      0
   484   1.60000   0.80000   0.35000   0.10000   90.00000   0.00000   0.00100   483  484  485      0
   485   1.60000   0.80000   0.45000   0.10000   90.00000   0.00000   0.00100   484  485  486      0
   486   1.60000   0.80000   0.55000   0.10000   90.00000   0.00000   0.00100   485  486  487      0
   487   1.60000   0.80000   0.65000   0.10000   90.00000   0.00000   0.00100   486  487  488      0
   488   1.60000   0.80000   0.75000   0.10000   90.00000   0.00000   0.00100   487  488  489      0
   489   1.60000   0.80000   0.85000   0.10000   90.00000   0.00000   0.00100   488  489  490      0
   490   1.60000   0.80000   0.95000   0.10000   90.00000   0.00000   0.00100   489  490    0      0
   491   1.80000   0.80000   0.05000   0.10000   90.00000   0.00000   0.00100     0  491  492      0
   492   1.80000   0.80000   0.15000   0.10000   90.00000   0.00000   0.00100   491  492  493      0
   493   1.80000   0.80000   0.25000   0.10000   90.00000   0.00000   0.00100   492  493  494      0
   494   1.80000   0.80000   0.35000   0.10000   90.00000   0.00000   0.00100   493  494  495      0
   495   1.80000   0.80000   0.45000   0.10000   90.00000   0.00000   0.00100   494  495  496      0
   496   1.80000   0.80000   0.55000   0.10000   90.00000   0.00000   0.00100   495  496  497      0
   497   1.80000   0.80000   0.65000   0.10000   90.00000   0.00000   0.00100   496  497  498      0
   498   1.80000   0.80000   0.75000   0.10000   90.00000   0.00000   0.00100   497  498  499      0
   499   1.80000   0.80000   0.85000   0.10000   90.00000   0.00000   0.00100   498  499  500      0
   500   1.80000   0.80000   0.95000   0.10000   90.00000   0.00000   0.00100   499  500    0      0
   501   0.00000   1.00000   0.05000   0.10000   90.00000   0.00000   0.00100     0  501  502      0
   502   0.00000   1.00000   0.15000   0.10000   90.00000   0.00000   0.00100   501  502  503      0
   503   0.00000   1.00000   0.25000   0.10000   90.00000   0.00000   0.00100   502  503  504      0
   504   0.00000   1.00000   0.35000   0.10000   90.00000   0.00000   0.00100   503  504  505      0
   505   0.00000   1.00000   0.45000   0.10000   90.00000   0.00000   0.00100   504  505  506      0
   506   0.00000   1.00000   0.55000   0.10000   90.00000   0.00000   0.00100   505  506  507      0
   507   0.00000   1.00000   0.65000   0.10000   90.00000   0.00000   0.00100   506  507  508      0
   508   0.00000   1.00000   0.75000   0.10000   90.00000   0.00000   0.00100   507  508  509      0
   509   0.00000   1.00000   0.85000   0.10000   90.00000   0.00000   0.00100   508  509  510      0
   510   0.00000   1.00000   0.95000   0.10000   90.00000   0.00000   0.00100   509  510    0      0
   511   0.20000   1.00000   0.05000   0.10000   90.00000   0.00000   0.00100     0  511  512      0
   512   0.20000   1.00000   0.15000   0.10000   90.00000   0.00000   0.00100   511  512  513      0
   513   0.20000   1.00000   0.25000   0.10000   90.00000   0.00000   0.00100   512  513  514      0
   514   0.20000   1.00000   0.35000   0.10000   90.00000   0.00000   0.00100   513  514  515      0
   515   0.20000   1.00000   0.45000   0.10000   90.00000   0.00000   0.00100   514  515  516      0
   516   0.20000   1.00000   0.55000   0.10000   90.00000   0.00000   0.00100   515  516  517      0
   517   0.20000   1.00000   0.65000   0.10000   90.00000   0.00000   0.00100   516  517  518      0
   518   0.20000   1.00000   0.75000   0.10000   90.00000   0.00000   0.00100   517  518  519      0
   519   0.20000   1.00000   0.85000   0.10000   90.00000   0.00000   0.00100   518  519  520      0
   520   0.20000   1.00000   0.95000   0.10000   90.00000   0.00000   0.00100   519  520    0      0
   521   0.40000   1.00000   0.05000   0.10000   90.00000   0.00000   0.00100     0  521  522      0
   522   0.40000   1.00000   0.15000   0.10000   90.00000   0.00000   0.00100   521  522  523      0
   523   0.40000   1.00000   0.25000   0.10000   90.00000   0.00000   0.00100   522  523  524      0
   524   0.40000   1.00000   0.35000   0.10000   90.00000   0.00000   0.00100   523  524  525      0
   525   0.40000   1.00000   0.45000   0.10000   90.00000   0.00000   0.00100   524  525  526      0
   526   0.40000   1.00000   0.55000   0.10000   90.00000   0.00000   0.00100   525  526  527      0
   527   0.40000   1.00000   0.65000   0.10000   90.00000   0.00000   0.00100   526  527  528      0
   528   0.40000   1.00000   0.75000   0.10000   90.00000   0.00000   0.00100   527  528  529      0
   529   0.40000   1.00000   0.85000   0.10000   90.00000   0.00000   0.00100   528  529  530      0
   530   0.40000   1.00000   0.95000   0.10000   90.00000   0.00000   0.00100   529  530    0      0
   531   0.60000   1.00000   0.05000   0.10000   90.00000   0.00000   0.00100     0  531  532      0
   532   0.60000   1.00000   0.15000   0.10000   90.00000   0.00000   0.00100   531  532  533      0
   533   0.60000   1.00000   0.25000   0.10000   90.00000   0.00000   0.00100   532  533  534      0
   534   0.60000   1.00000   0.35000   0.10000   90.00000   0.00000   0.00100   533  534  535      0
   535   0.60000   1.00000   0.45000   0.10000   90.00000   0.00000   0.00100   534  535  536      0
   536   0.60000   1.00000   0.55000   0.10000   90.00000   0.00000   0.00100   535  536  537      0
   537   0.60000   1.00000   0.65000   0.10000   90.00000   0.00000   0.00100   536  537  538      0
   538   0.60000   1.00000   0.75000   0.10000   90.00000   0.00000   0.00100   537  538  539      0
   539   0.60000   1.00000   0.85000   0.10000   90.00000   0.00000   0.00100   538  539  540      0
   540   0.60000   1.00000   0.95000   0.10000   90.00000   0.00000   0.00100   539  540    0      0
   541   0.80000   1.00000   0.05000   0.10000   90.00000   0.00000   0.00100     0  541  542      0
   542   0.80000   1.00000   0.15000   0.10000   90.00000   0.00000   0.00100   541  542  543      0
   543   0.80000   1.00000   0.25000   0.10000   90.00000   0.00000   0.00100   542  543  544      0
   544   0.80000   1.00000   0.35000   0.10000   90.00000   0.00000   0.00100   543  544  545      0
   545   0.80000   1.00000   0.45000   0.10000   90.00000   0.00000   0.00100   544  545  546      0
   546   0.80000   1.00000   0.55000   0.10000   90.00000   0.00000   0.00100   545  546  547      0
   547   0.80000   1.00000   0.65000   0.10000   90.00000   0.00000   0.00100   546  547  548      0
   548   0.80000   1.00000   0.75000   0.10000   90.00000   0.00000   0.00100   547  548  549      0
   549   0.80000   1.00000   0.85000   0.10000   90.00000   0.00000   0.00100   548  549  550      0
   550   0.80000   1.00000   0.95000   0.10000   90.00000   0.00000   0.00100   549  550    0      0
   551   1.00000   1.00000   0.05000   0.10000   90.00000   0.00000   0.00100     0  551  552      0
   552   1.00000   1.00000   0.15000   0.10000   90.00000   0.00000   0.00100   551  552  553      0
   553   1.00000   1.00000   0.25000   0.10000   90.00000   0.00000   0.00100   552  553  554      0
   554   1.00000   1.00000   0.35000   0.10000   90.00000   0.00000   0.00100   553  554  555      0
   555   1.00000   1.00000   0.45000   0.10000   90.00000   0.00000   0.00100   554  555  556      0
   556   1.00000   1.00000   0.55000   0.10000   90.00000   0.00000   0.00100   555  556  557      0
   557   1.00000   1.00000   0.65000   0.10000   90.00000   0.00000   0.00100   556  557  558      0
   558   1.00000   1.00000   0.75000   0.10000   90.00000   0.00000   0.00100   557  558  559      0
   559   1.00000   1.00000   0.85000   0.10000   90.00000   0.00000   0.00100   558  559  560      0
   560   1.00000   1.00000   0.95000   0.10000   90.00000   0.00000   0.00100   559  560    0      0
   561   1.20000   1.00000   0.05000   0.10000   90.00000   0.00000   0.00100     0  561  562      0
   562   1.20000   1.00000   0.15000   0.10000   90.00000   0.00000   0.00100   561  562  563      0
   563   1.20000   1.00000   0.25000   0.10000   90.00000   0.00000   0.00100   562  563  564      0
   564   1.20000   1.00000   0.35000   0.10000   90.00000   0.00000   0.00100   563  564  565      0
   565   1.20000   1.00000   0.45000   0.10000   90.00000   0.00000   0.00100   564  565  566      0
   566   1.20000   1.00000   0.55000   0.10000   90.00000   0.00000   0.00100   565  566  567      0
   567   1.20000   1.00000   0.65000   0.10000   90.00000   0.00000   0.00100   566  567  568      0
   568   1.20000   1.00000   0.75000   0.10000   90.00000   0.00000   0.00100   567  568  569      0
   569   1.20000   1.00000   0.85000   0.10000   90.00000   0.00000   0.00100   568  569  570      0
   570   1.20000   1.00000   0.95000   0.10000   90.00000   0.00000   0.00100   569  570    0      0
   571   1.40000   1.00000   0.05000   0.10000   90.00000   0.00000   0.00100     0  571  572      0
   572   1.40000   1.00000   0.15000   0.10000   90.00000   0.00000   0.00100   571  572  573      0
   573   1.40000   1.00000   0.25000   0.10000   90.00000   0.00000   0.00100   572  573  574      0
   574   1.40000   1.00000   0.35000   0.10000   90.00000   0.00000   0.00100   573  574  575      0
   575   1.40000   1.00000   0.45000   0.10000   90.00000   0.00000   0.00100   574  575  576      0
   576   1.40000   1.00000   0.55000   0.10000   90.00000   0.00000   0.00100   575  576  577      0
   577   1.40000   1.00000   0.65000   0.10000   90.00000   0.00000   0.00100   576  577  578      0
   578   1.40000   1.00000   0.75000   0.10000   90.00000   0.00000   0.00100   577  578  579      0
   579   1.40000   1.00000   0.85000   0.10000   90.00000   0.00000   0.00100   578  579  580      0
   580   1.40000   1.00000   0.95000   0.10000   90.00000   0.00000   0.00100   579  580    0      0
   581   1.60000   1.00000   0.05000   0.10000   90.00000   0.00000   0.00100     0  581  582      0
   582   1.60000   1.00000   0.15000   0.10000   90.00000   0.00000   0.00100   581  582  583      0
   583   1.60000   1.00000   0.25000   0.10000   90.00000   0.00000   0.00100   582  583  584      0
   584   1.60000   1.00000   0.35000   0.10000   90.00000   0.00000   0.00100   583  584  585      0
   585   1.60000   1.00000   0.45000   0.10000   90.00000   0.00000   0.00100   584  585  586      0
   586   1.60000   1.00000   0.55000   0.10000   90.00000   0.00000   0.00100   585  586  587      0
   587   1.60000   1.00000   0.65000   0.10000   90.00000   0.00000   0.00100   586  587  588      0
   588   1.60000   1.00000   0.75000   0.10000   90.00000   0.00000   0.00100   587  588  589      0
   589   1.60000   1.00000   0.85000   0.10000   90.00000   0.00000   0.00100   588  589  590      0
   590   1.60000   1.00000   0.95000   0.10000   90.00000   0.00000   0.00100   589  590    0      0
   591   1.80000   1.00000   0.05000   0.10000   90.00000   0.00000   0.00100     0  591  592      0
   592   1.80000   1.00000   0.15000   0.10000   90.00000   0.00000   0.00100   591  592  593      0
   593   1.80000   1.00000   0.25000   0.10000   90.00000   0.00000   0.00100   592  593  594      0
   594   1.80000   1.00000   0.35000   0.10000   90.00000   0.00000   0.00100   593  594  595      0
   595   1.80000   1.00000   0.45000   0.10000   90.00000   0.00000   0.00100   594  595  596      0
   596   1.80000   1.00000   0.55000   0.10000   90.00000   0.00000   0.00100   595  596  597      0
   597   1.80000   1.00000   0.65000   0.10000   90.00000   0.00000   0.00100   596  597  598      0
   598   1.80000   1.00000   0.75000   0.10000   90.00000   0.00000   0.00100   597  598  599      0
   599   1.80000   1.00000   0.85000   0.10000   90.00000   0.00000   0.00100   598  599  600      0
   600   1.80000   1.00000   0.95000   0.10000   90.00000   0.00000   0.00100   599  600    0      0






 ***** DATA CARD NO.  1   EX   0     0     5     0  1.00000E+00  0.00000E+00  0.00000E+00  0.00000E+00  0.00000E+00  0.00000E+00
 ***** DATA CARD NO.  2   XQ   0     0     0     0  0.00000E+00  0.00000E+00  0.00000E+00  0.00000E+00  0.00000E+00  0.00000E+00




                                 - - - - - - FREQUENCY - - - - - -

                                    FREQUENCY= 2.9979E+02 MHZ
                                    WAVELENGTH= 1.0000E+00 METERS




                    APPROXIMATE INTEGRATION EMPLOYED FOR SEGMENTS MORE THAN   1.000 WAVELENGTHS APART



                               - - - STRUCTURE IMPEDANCE LOADING - - -

                                   THIS STRUCTURE IS NOT LOADED



                                  - - - ANTENNA ENVIRONMENT - - -

                                            FREE SPACE



                                - - - MATRIX TIMING - - -

                        FILL=    7.180 SEC.,  FACTOR=   21.410 SEC.



                                          - - - ANTENNA INPUT PARAMETERS - - -

   TAG   SEG.    VOLTAGE (VOLTS)         CURRENT (AMPS)         IMPEDANCE (OHMS)        ADMITTANCE (MHOS)      POWER
   NO.   NO.    REAL        IMAG.       REAL        IMAG.       REAL        IMAG.       REAL        IMAG.     (WATTS)
     0     5 1.00000E+00 0.00000E+00 6.77300E-04-6.06739E-04 8.19116E+02 7.33780E+02 6.77300E-04-6.06739E-04 3.38650E-04



                             - - - CURRENTS AND LOCATION - - -

                                 DISTANCES IN WAVELENGTHS


  SEG.  TAG    COORD. OF SEG. CENTER     SEG.            - - - CURRENT (AMPS) - - -
  NO.   NO.     X        Y        Z      LENGTH     REAL        IMAG.       MAG.        PHASE
     1    0   0.0000   0.0000   0.0500  0.10000   3.6602E-04 -1.5662E-03  1.6084E-03  -76.846
     2    0   0.0000   0.0000   0.1500  0.10000   9.2160E-04 -3.6383E-03  3.7532E-03  -75.786
     3    0   0.0000   0.0000   0.2500  0.10000   1.1834E-03 -4.1164E-03  4.2831E-03  -73.961
     4    0   0.0000   0.0000   0.3500  0.10000   1.0874E-03 -2.8809E-03  3.0793E-03  -69.321
     5    0   0.0000   0.0000   0.4500  0.10000   6.7730E-04 -6.0674E-04  9.0932E-04  -41.855
     6    0   0.0000   0.0000   0.5500  0.10000   1.0498E-04  3.1796E-04  3.3484E-04   71.728
     7    0   0.0000   0.0000   0.6500  0.10000  -4.2244E-04  1.0266E-03  1.1102E-03  112.366
     8    0   0.0000   0.0000   0.7500  0.10000  -7.1716E-04  1.4072E-03  1.5794E-03  117.004
     9    0   0.0000   0.0000   0.8500  0.10000  -6.7635E-04  1.2421E-03  1.4143E-03  118.570
    10    0   0.0000   0.0000   0.9500  0.10000  -3.0253E-04  5.3592E-04  6.1542E-04  119.445
    11    0   0.2000   0.0000   0.0500  0.10000   9.6339E-05  5.6893E-04  5.7703E-04   80.389
    12    0   0.2000   0.0000   0.1500  0.10000   2.5408E-04  1.3899E-03  1.4130E-03   79.641
    13    0   0.2000   0.0000   0.2500  0.10000   3.5434E-04  1.6879E-03  1.7247E-03   78.144
    14    0   0.2000   0.0000   0.3500  0.10000   3.7744E-04  1.3899E-03  1.4402E-03   74.807
    15    0   0.2000   0.0000   0.4500  0.10000   3.2136E-04  6.2954E-04  7.0682E-04   62.957
    16    0   0.2000   0.0000   0.5500  0.10000   2.0716E-04 -2.9583E-04  3.6115E-04  -54.998
    17    0   0.2000   0.0000   0.6500  0.10000   7.3377E-05 -1.0521E-03  1.0546E-03  -86.010
    18    0   0.2000   0.0000   0.7500  0.10000  -3.5794E-05 -1.3795E-03  1.3800E-03  -91.486
    19    0   0.2000   0.0000   0.8500  0.10000  -8.4026E-05 -1.1718E-03  1.1748E-03  -94.101
    20    0   0.2000   0.0000   0.9500  0.10000  -5.1044E-05 -4.8987E-04  4.9252E-04  -95.949
    21    0   0.4000   0.0000   0.0500  0.10000   5.0270E-05 -4.1330E-05  6.5078E-05  -39.426
    22    0   0.4000   0.0000   0.1500  0.10000   1.2881E-04 -1.1834E-04  1.7492E-04  -42.575
    23    0   0.4000   0.0000   0.2500  0.10000   1.7502E-04 -1.6224E-04  2.3865E-04  -42.830
    24    0   0.4000   0.0000   0.3500  0.10000   1.8214E-04 -1.4832E-04  2.3489E-04  -39.156
    25    0   0.4000   0.0000   0.4500  0.10000   1.5218E-04 -7.6169E-05  1.7018E-04  -26.589
    26    0   0.4000   0.0000   0.5500  0.10000   9.7370E-05  2.8351E-05  1.0141E-04   16.234
    27    0   0.4000   0.0000   0.6500  0.10000   3.6440E-05  1.2339E-04  1.2866E-04   73.547
    28    0   0.4000   0.0000   0.7500  0.10000  -1.1252E-05  1.6915E-04  1.6952E-04   93.806
    29    0   0.4000   0.0000   0.8500  0.10000  -3.1650E-05  1.4586E-04  1.4925E-04  102.243
    30    0   0.4000   0.0000   0.9500  0.10000  -1.9120E-05  6.0709E-05  6.3649E-05  107.481
    31    0   0.6000   0.0000   0.0500  0.10000   7.4111E-06 -2.3106E-05  2.4266E-05  -72.217
    32    0   0.6000   0.0000   0.1500  0.10000   1.2896E-05 -6.3969E-05  6.5256E-05  -78.602
    33    0   0.6000   0.0000   0.2500  0.10000   1.2393E-05 -9.0206E-05  9.1054E-05  -82.177
    34    0   0.6000   0.0000   0.3500  0.10000   1.1613E-05 -9.2446E-05  9.3173E-05  -82.840
    35    0   0.6000   0.0000   0.4500  0.10000   1.3942E-05 -6.9154E-05  7.0546E-05  -78.602
    36    0   0.6000   0.0000   0.5500  0.10000   1.9591E-05 -2.8564E-05  3.4637E-05  -55.555
    37    0   0.6000   0.0000   0.6500  0.10000   2.5829E-05  1.4226E-05  2.9488E-05   28.845
    38    0   0.6000   0.0000   0.7500  0.10000   2.8466E-05  4.3071E-05  5.1627E-05   56.539
    39    0   0.6000   0.0000   0.8500  0.10000   2.3908E-05  4.6924E-05  5.2663E-05   63.001
    40    0   0.6000   0.0000   0.9500  0.10000   1.0501E-05  2.2729E-05  2.5038E-05   65.202
    41    0   0.8000   0.0000   0.0500  0.10000  -1.0645E-05 -7.6261E-06  1.3095E-05 -144.382
    42    0   0.8000   0.0000   0.1500  0.10000  -3.2493E-05 -1.7321E-05  3.6821E-05 -151.940
    43    0   0.8000   0.0000   0.2500  0.10000  -4.8220E-05 -2.1055E-05  5.2616E-05 -156.412
    44    0   0.8000   0.0000   0.3500  0.10000  -5.0347E-05 -1.9581E-05  5.4021E-05 -158.748
    45    0   0.8000   0.0000   0.4500  0.10000  -3.6668E-05 -1.4318E-05  3.9364E-05 -158.670
    46    0   0.8000   0.0000   0.5500  0.10000  -1.1590E-05 -7.4177E-06  1.3761E-05 -147.381
    47    0   0.8000   0.0000   0.6500  0.10000   1.5488E-05 -1.2185E-06  1.5535E-05   -4.499
    48    0   0.8000   0.0000   0.7500  0.10000   3.3910E-05  2.5403E-06  3.4005E-05    4.284
    49    0   0.8000   0.0000   0.8500  0.10000   3.5617E-05  3.2359E-06  3.5764E-05    5.191
    50    0   0.8000   0.0000   0.9500  0.10000   1.7271E-05  1.4501E-06  1.7332E-05    4.799
    51    0   1.0000   0.0000   0.0500  0.10000  -4.2743E-06  4.4370E-06  6.1609E-06  133.930
    52    0   1.0000   0.0000   0.1500  0.10000  -1.1840E-05  1.6017E-05  1.9919E-05  126.472
    53    0   1.0000   0.0000   0.2500  0.10000  -1.7046E-05  2.6300E-05  3.1341E-05  122.949
    54    0   1.0000   0.0000   0.3500  0.10000  -1.8238E-05  3.0046E-05  3.5149E-05  121.258
    55    0   1.0000   0.0000   0.4500  0.10000  -1.4912E-05  2.4950E-05  2.9067E-05  120.866
    56    0   1.0000   0.0000   0.5500  0.10000  -8.2017E-06  1.2516E-05  1.4964E-05  123.237
    57    0   1.0000   0.0000   0.6500  0.10000  -4.8896E-07 -2.5867E-06  2.6325E-06 -100.704
    58    0   1.0000   0.0000   0.7500  0.10000   5.3369E-06 -1.4273E-05  1.5239E-05  -69.499
    59    0   1.0000   0.0000   0.8500  0.10000   7.0256E-06 -1.7367E-05  1.8734E-05  -67.975
    60    0   1.0000   0.0000   0.9500  0.10000   3.6563E-06 -9.0550E-06  9.7654E-06  -68.012
    61    0   1.2000   0.0000   0.0500  0.10000   5.4617E-07  5.3668E-06  5.3945E-06   84.189
    62    0   1.2000   0.0000   0.1500  0.10000   4.6765E-06  1.5695E-05  1.6377E-05   73.408
    63    0   1.2000   0.0000   0.2500  0.10000   1.0016E-05  2.3112E-05  2.5189E-05   66.570
    64    0   1.2000   0.0000   0.3500  0.10000   1.3594E-05  2.4764E-05  2.8250E-05   61.236
    65    0   1.2000   0.0000   0.4500  0.10000   1.3588E-05  1.9781E-05  2.3998E-05   55.515
    66    0   1.2000   0.0000   0.5500  0.10000   9.8334E-06  9.8494E-06  1.3918E-05   45.047
    67    0   1.2000   0.0000   0.6500  0.10000   3.7920E-06 -1.3768E-06  4.0342E-06  -19.955
    68    0   1.2000   0.0000   0.7500  0.10000  -2.0306E-06 -9.6370E-06  9.8486E-06 -101.899
    69    0   1.2000   0.0000   0.8500  0.10000  -5.0249E-06 -1.1635E-05  1.2673E-05 -113.359
    70    0   1.2000   0.0000   0.9500  0.10000  -3.2263E-06 -5.9437E-06  6.7629E-06 -118.494
    71    0   1.4000   0.0000   0.0500  0.10000   4.4124E-06  2.6867E-07  4.4206E-06    3.484
    72    0   1.4000   0.0000   0.1500  0.10000   1.3691E-05 -1.0419E-06  1.3731E-05   -4.352
    73    0   1.4000   0.0000   0.2500  0.10000   2.0947E-05 -3.2866E-06  2.1203E-05   -8.917
    74    0   1.4000   0.0000   0.3500  0.10000   2.3185E-05 -4.9836E-06  2.3714E-05  -12.131
    75    0   1.4000   0.0000   0.4500  0.10000   1.9298E-05 -5.2040E-06  1.9987E-05  -15.092
    76    0   1.4000   0.0000   0.5500  0.10000   1.0598E-05 -3.7748E-06  1.1250E-05  -19.605
    77    0   1.4000   0.0000   0.6500  0.10000   3.1192E-07 -1.2760E-06  1.3136E-06  -76.264
    78    0   1.4000   0.0000   0.7500  0.10000  -7.6280E-06  1.2051E-06  7.7226E-06  171.022
    79    0   1.4000   0.0000   0.8500  0.10000  -1.0031E-05  2.4775E-06  1.0332E-05  166.126
    80    0   1.4000   0.0000   0.9500  0.10000  -5.3200E-06  1.5683E-06  5.5464E-06  163.575
    81    0   1.6000   0.0000   0.0500  0.10000   1.4210E-06 -3.0125E-06  3.3309E-06  -64.746
    82    0   1.6000   0.0000   0.1500  0.10000   3.0175E-06 -1.0077E-05  1.0519E-05  -73.330
    83    0   1.6000   0.0000   0.2500  0.10000   3.4081E-06 -1.6083E-05  1.6440E-05  -78.036
    84    0   1.6000   0.0000   0.3500  0.10000   2.9048E-06 -1.8340E-05  1.8569E-05  -81.000
    85    0   1.6000   0.0000   0.4500  0.10000   1.8863E-06 -1.5701E-05  1.5814E-05  -83.149
    86    0   1.6000   0.0000   0.5500  0.10000   7.8576E-07 -9.0148E-06  9.0489E-06  -85.018
    87    0   1.6000   0.0000   0.6500  0.10000  -2.8269E-08 -7.7729E-07  7.7780E-07  -92.083
    88    0   1.6000   0.0000   0.7500  0.10000  -3.6689E-07  5.8153E-06  5.8269E-06   93.610
    89    0   1.6000   0.0000   0.8500  0.10000  -2.7959E-07  8.0372E-06  8.0421E-06   91.992
    90    0   1.6000   0.0000   0.9500  0.10000  -4.1567E-08  4.3736E-06  4.3738E-06   90.545
    91    0   1.8000   0.0000   0.0500  0.10000  -1.3048E-06 -6.4269E-07  1.4545E-06 -153.777
    92    0   1.8000   0.0000   0.1500  0.10000  -5.4366E-06 -1.8738E-06  5.7505E-06 -160.983
    93    0   1.8000   0.0000   0.2500  0.10000  -9.5855E-06 -2.8705E-06  1.0006E-05 -163.329
    94    0   1.8000   0.0000   0.3500  0.10000  -1.1596E-05 -3.3665E-06  1.2075E-05 -163.811
    95    0   1.8000   0.0000   0.4500  0.10000  -1.0360E-05 -3.2256E-06  1.0850E-05 -162.705
    96    0   1.8000   0.0000   0.5500  0.10000  -6.1898E-06 -2.5101E-06  6.6794E-06 -157.926
    97    0   1.8000   0.0000   0.6500  0.10000  -6.7019E-07 -1.4618E-06  1.6081E-06 -114.630
    98    0   1.8000   0.0000   0.7500  0.10000   3.9645E-06 -4.2679E-07  3.9874E-06   -6.144
    99    0   1.8000   0.0000   0.8500  0.10000   5.6656E-06  2.4399E-07  5.6709E-06    2.466
   100    0   1.8000   0.0000   0.9500  0.10000   3.1520E-06  2.8041E-07  3.1645E-06    5.084
   101    0   0.0000   0.2000   0.0500  0.10000   9.6328E-05  5.6894E-04  5.7703E-04   80.390
   102    0   0.0000   0.2000   0.1500  0.10000   2.5408E-04  1.3900E-03  1.4130E-03   79.641
   103    0   0.0000   0.2000   0.2500  0.10000   3.5436E-04  1.6879E-03  1.7247E-03   78.144
   104    0   0.0000   0.2000   0.3500  0.10000   3.7748E-04  1.3900E-03  1.4403E-03   74.806
   105    0   0.0000   0.2000   0.4500  0.10000   3.2140E-04  6.2962E-04  7.0691E-04   62.957
   106    0   0.0000   0.2000   0.5500  0.10000   2.0717E-04 -2.9576E-04  3.6110E-04  -54.990
   107    0   0.0000   0.2000   0.6500  0.10000   7.3343E-05 -1.0520E-03  1.0546E-03  -86.012
   108    0   0.0000   0.2000   0.7500  0.10000  -3.5868E-05 -1.3795E-03  1.3800E-03  -91.489
   109    0   0.0000   0.2000   0.8500  0.10000  -8.4110E-05 -1.1718E-03  1.1748E-03  -94.105
   110    0   0.0000   0.2000   0.9500  0.10000  -5.1087E-05 -4.8986E-04  4.9252E-04  -95.954
   111    0   0.2000   0.2000   0.0500  0.10000  -3.0605E-05  6.6083E-05  7.2826E-05  114.851
   112    0   0.2000   0.2000   0.1500  0.10000  -6.1645E-05  1.5052E-04  1.6266E-04  112.271
   113    0   0.2000   0.2000   0.2500  0.10000  -4.4061E-05  1.8196E-04  1.8722E-04  103.612
   114    0   0.2000   0.2000   0.3500  0.10000   2.2758E-05  1.6999E-04  1.7151E-04   82.375
   115    0   0.2000   0.2000   0.4500  0.10000   1.1876E-04  1.3218E-04  1.7769E-04   48.062
   116    0   0.2000   0.2000   0.5500  0.10000   2.0902E-04  8.7009E-05  2.2641E-04   22.600
   117    0   0.2000   0.2000   0.6500  0.10000   2.5796E-04  4.4873E-05  2.6184E-04    9.868
   118    0   0.2000   0.2000   0.7500  0.10000   2.4427E-04  1.0000E-05  2.4448E-04    2.344
   119    0   0.2000   0.2000   0.8500  0.10000   1.7043E-04 -1.2495E-05  1.7089E-04   -4.193
   120    0   0.2000   0.2000   0.9500  0.10000   6.0547E-05 -1.2736E-05  6.1872E-05  -11.879
   121    0   0.4000   0.2000   0.0500  0.10000  -4.6182E-06 -2.1359E-05  2.1852E-05 -102.201
   122    0   0.4000   0.2000   0.1500  0.10000  -7.0792E-06 -6.0435E-05  6.0848E-05  -96.681
   123    0   0.4000   0.2000   0.2500  0.10000   3.9331E-06 -7.9740E-05  7.9837E-05  -87.176
   124    0   0.4000   0.2000   0.3500  0.10000   2.9462E-05 -6.5282E-05  7.1622E-05  -65.710
   125    0   0.4000   0.2000   0.4500  0.10000   6.3440E-05 -1.7570E-05  6.5828E-05  -15.480
   126    0   0.4000   0.2000   0.5500  0.10000   9.4474E-05  4.7142E-05  1.0558E-04   26.519
   127    0   0.4000   0.2000   0.6500  0.10000   1.1041E-04  1.0325E-04  1.5116E-04   43.080
   128    0   0.4000   0.2000   0.7500  0.10000   1.0342E-04  1.2676E-04  1.6360E-04   50.792
   129    0   0.4000   0.2000   0.8500  0.10000   7.3376E-05  1.0588E-04  1.2882E-04   55.278
   130    0   0.4000   0.2000   0.9500  0.10000   2.7168E-05  4.4126E-05  5.1819E-05   58.380
   131    0   0.6000   0.2000   0.0500  0.10000   1.3934E-06  4.0315E-06  4.2655E-06   70.933
   132    0   0.6000   0.2000   0.1500  0.10000   2.1486E-07  6.5506E-06  6.5541E-06   88.121
   133    0   0.6000   0.2000   0.2500  0.10000  -8.7263E-07  3.3464E-06  3.4583E-06  104.615
   134    0   0.6000   0.2000   0.3500  0.10000   2.6218E-06 -2.8607E-06  3.8804E-06  -47.495
   135    0   0.6000   0.2000   0.4500  0.10000   1.1929E-05 -8.6246E-06  1.4720E-05  -35.866
   136    0   0.6000   0.2000   0.5500  0.10000   2.4683E-05 -1.1156E-05  2.7087E-05  -24.321
   137    0   0.6000   0.2000   0.6500  0.10000   3.5937E-05 -9.4906E-06  3.7169E-05  -14.794
   138    0   0.6000   0.2000   0.7500  0.10000   4.0179E-05 -4.7995E-06  4.0465E-05   -6.812
   139    0   0.6000   0.2000   0.8500  0.10000   3.3509E-05  1.0498E-07  3.3509E-05    0.180
   140    0   0.6000   0.2000   0.9500  0.10000   1.4587E-05  1.6544E-06  1.4681E-05    6.470
   141    0   0.8000   0.2000   0.0500  0.10000   1.6180E-06  2.5634E-06  3.0313E-06   57.739
   142    0   0.8000   0.2000   0.1500  0.10000   1.4077E-07  8.0058E-06  8.0070E-06   88.993
   143    0   0.8000   0.2000   0.2500  0.10000  -4.1671E-06  1.1302E-05  1.2046E-05  110.238
   144    0   0.8000   0.2000   0.3500  0.10000  -7.6275E-06  1.0374E-05  1.2876E-05  126.325
   145    0   0.8000   0.2000   0.4500  0.10000  -7.6026E-06  5.1693E-06  9.1935E-06  145.787
   146    0   0.8000   0.2000   0.5500  0.10000  -3.4166E-06 -2.4387E-06  4.1977E-06 -144.482
   147    0   0.8000   0.2000   0.6500  0.10000   3.3684E-06 -9.5294E-06  1.0107E-05  -70.533
   148    0   0.8000   0.2000   0.7500  0.10000   9.6677E-06 -1.3284E-05  1.6429E-05  -53.954
   149    0   0.8000   0.2000   0.8500  0.10000   1.1815E-05 -1.2004E-05  1.6843E-05  -45.456
   150    0   0.8000   0.2000   0.9500  0.10000   6.5048E-06 -5.3868E-06  8.4457E-06  -39.629
   151    0   1.0000   0.2000   0.0500  0.10000   3.4134E-06 -4.2625E-07  3.4399E-06   -7.118
   152    0   1.0000   0.2000   0.1500  0.10000   7.8629E-06  2.7157E-06  8.3187E-06   19.054
   153    0   1.0000   0.2000   0.2500  0.10000   8.7481E-06  8.0807E-06  1.1909E-05   42.729
   154    0   1.0000   0.2000   0.3500  0.10000   6.0865E-06  1.2386E-05  1.3800E-05   63.830
   155    0   1.0000   0.2000   0.4500  0.10000   1.0793E-06  1.3348E-05  1.3392E-05   85.377
   156    0   1.0000   0.2000   0.5500  0.10000  -4.2736E-06  1.0310E-05  1.1161E-05  112.514
   157    0   1.0000   0.2000   0.6500  0.10000  -7.9250E-06  4.3971E-06  9.0631E-06  150.977
   158    0   1.0000   0.2000   0.7500  0.10000  -8.6681E-06 -1.8592E-06  8.8653E-06 -167.894
   159    0   1.0000   0.2000   0.8500  0.10000  -6.4972E-06 -5.4438E-06  8.4764E-06 -140.041
   160    0   1.0000   0.2000   0.9500  0.10000  -2.4229E-06 -3.6855E-06  4.4106E-06 -123.321
   161    0   1.2000   0.2000   0.0500  0.10000  -5.5130E-07 -7.5561E-07  9.3535E-07 -126.115
   162    0   1.2000   0.2000   0.1500  0.10000   1.1876E-06 -2.0095E-07  1.2045E-06   -9.604
   163    0   1.2000   0.2000   0.2500  0.10000   4.6241E-06  2.2021E-06  5.1217E-06   25.465
   164    0   1.2000   0.2000   0.3500  0.10000   7.6557E-06  5.1861E-06  9.2469E-06   34.114
   165    0   1.2000   0.2000   0.4500  0.10000   8.7909E-06  7.4118E-06  1.1498E-05   40.135
   166    0   1.2000   0.2000   0.5500  0.10000   7.4862E-06  7.9156E-06  1.0895E-05   46.597
   167    0   1.2000   0.2000   0.6500  0.10000   4.2532E-06  6.4872E-06  7.7572E-06   56.750
[...]
   395    0   1.8000   0.6000   0.4500  0.10000  -1.8322E-06  7.5308E-07  1.9810E-06  157.657
   396    0   1.8000   0.6000   0.5500  0.10000  -1.8956E-06  1.9833E-07  1.9060E-06  174.027
   397    0   1.8000   0.6000   0.6500  0.10000  -1.1474E-06 -5.6303E-07  1.2781E-06 -153.864
   398    0   1.8000   0.6000   0.7500  0.10000   1.2315E-08 -1.1720E-06  1.1721E-06  -89.398
   399    0   1.8000   0.6000   0.8500  0.10000   9.0313E-07 -1.2806E-06  1.5670E-06  -54.807
   400    0   1.8000   0.6000   0.9500  0.10000   7.4423E-07 -6.5630E-07  9.9228E-07  -41.408
   401    0   0.0000   0.8000   0.0500  0.10000  -1.0782E-05 -7.9396E-06  1.3390E-05 -143.632
   402    0   0.0000   0.8000   0.1500  0.10000  -3.2830E-05 -1.8148E-05  3.7512E-05 -151.067
   403    0   0.0000   0.8000   0.2500  0.10000  -4.8602E-05 -2.2277E-05  5.3464E-05 -155.375
   404    0   0.0000   0.8000   0.3500  0.10000  -5.0588E-05 -2.1072E-05  5.4801E-05 -157.386
   405    0   0.0000   0.8000   0.4500  0.10000  -3.6642E-05 -1.5942E-05  3.9959E-05 -156.487
   406    0   0.0000   0.8000   0.5500  0.10000  -1.1286E-05 -9.0301E-06  1.4454E-05 -141.336
   407    0   0.0000   0.8000   0.6500  0.10000   1.5967E-05 -2.6712E-06  1.6188E-05   -9.498
   408    0   0.0000   0.8000   0.7500  0.10000   3.4397E-05  1.3876E-06  3.4425E-05    2.310
   409    0   0.0000   0.8000   0.8500  0.10000   3.5957E-05  2.4942E-06  3.6043E-05    3.968
   410    0   0.0000   0.8000   0.9500  0.10000   1.7386E-05  1.1870E-06  1.7427E-05    3.906
   411    0   0.2000   0.8000   0.0500  0.10000   1.5627E-06  2.4568E-06  2.9117E-06   57.540
   412    0   0.2000   0.8000   0.1500  0.10000   5.8169E-08  7.6957E-06  7.6960E-06   89.567
   413    0   0.2000   0.8000   0.2500  0.10000  -4.1337E-06  1.0700E-05  1.1471E-05  111.122
   414    0   0.2000   0.8000   0.3500  0.10000  -7.3467E-06  9.3477E-06  1.1889E-05  128.165
   415    0   0.2000   0.8000   0.4500  0.10000  -7.0244E-06  3.6440E-06  7.9133E-06  152.581
   416    0   0.2000   0.8000   0.5500  0.10000  -2.6048E-06 -4.3951E-06  5.1090E-06 -120.653
   417    0   0.2000   0.8000   0.6500  0.10000   4.2580E-06 -1.1679E-05  1.2431E-05  -69.969
   418    0   0.2000   0.8000   0.7500  0.10000   1.0446E-05 -1.5262E-05  1.8494E-05  -55.611
   419    0   0.2000   0.8000   0.8500  0.10000   1.2328E-05 -1.3420E-05  1.8223E-05  -47.430
   420    0   0.2000   0.8000   0.9500  0.10000   6.6804E-06 -5.9265E-06  8.9303E-06  -41.578
   421    0   0.4000   0.8000   0.0500  0.10000   1.9829E-06  1.3291E-06  2.3872E-06   33.834
   422    0   0.4000   0.8000   0.1500  0.10000   2.6453E-06  5.7545E-06  6.3334E-06   65.312
   423    0   0.4000   0.8000   0.2500  0.10000   1.0355E-06  9.8864E-06  9.9405E-06   84.021
   424    0   0.4000   0.8000   0.3500  0.10000  -6.7594E-07  1.1282E-05  1.1302E-05   93.429
   425    0   0.4000   0.8000   0.4500  0.10000  -9.1505E-07  8.9970E-06  9.0434E-06   95.807
   426    0   0.4000   0.8000   0.5500  0.10000   9.2229E-07  3.7310E-06  3.8433E-06   76.115
   427    0   0.4000   0.8000   0.6500  0.10000   4.3701E-06 -2.6011E-06  5.0857E-06  -30.761
   428    0   0.4000   0.8000   0.7500  0.10000   7.6644E-06 -7.4520E-06  1.0690E-05  -44.195
   429    0   0.4000   0.8000   0.8500  0.10000   8.4167E-06 -8.5440E-06  1.1993E-05  -45.430
   430    0   0.4000   0.8000   0.9500  0.10000   4.4408E-06 -4.4299E-06  6.2726E-06  -44.930
   431    0   0.6000   0.8000   0.0500  0.10000   5.2470E-06 -1.9677E-06  5.6038E-06  -20.556
   432    0   0.6000   0.8000   0.1500  0.10000   1.2096E-05 -1.7861E-06  1.2227E-05   -8.399
   433    0   0.6000   0.8000   0.2500  0.10000   1.4062E-05  1.5922E-06  1.4152E-05    6.460
   434    0   0.6000   0.8000   0.3500  0.10000   1.1380E-05  5.7617E-06  1.2756E-05   26.853
   435    0   0.6000   0.8000   0.4500  0.10000   5.5765E-06  8.6421E-06  1.0285E-05   57.167
   436    0   0.6000   0.8000   0.5500  0.10000  -9.5538E-07  8.9653E-06  9.0160E-06   96.083
   437    0   0.6000   0.8000   0.6500  0.10000  -5.8491E-06  6.6640E-06  8.8669E-06  131.274
   438    0   0.6000   0.8000   0.7500  0.10000  -7.5901E-06  2.8653E-06  8.1129E-06  159.318
   439    0   0.6000   0.8000   0.8500  0.10000  -6.0286E-06 -5.0816E-07  6.0499E-06 -175.182
   440    0   0.6000   0.8000   0.9500  0.10000  -2.2719E-06 -1.2834E-06  2.6094E-06 -150.537
   441    0   0.8000   0.8000   0.0500  0.10000  -1.1412E-06  4.4269E-07  1.2240E-06  158.797
   442    0   0.8000   0.8000   0.1500  0.10000  -1.5829E-06  3.2686E-06  3.6317E-06  115.839
   443    0   0.8000   0.8000   0.2500  0.10000  -3.2352E-07  6.8179E-06  6.8256E-06   92.717
   444    0   0.8000   0.8000   0.3500  0.10000   1.9089E-06  9.0632E-06  9.2621E-06   78.106
   445    0   0.8000   0.8000   0.4500  0.10000   4.2758E-06  8.7634E-06  9.7509E-06   63.992
   446    0   0.8000   0.8000   0.5500  0.10000   5.9350E-06  5.8498E-06  8.3333E-06   44.586
   447    0   0.8000   0.8000   0.6500  0.10000   6.3146E-06  1.4220E-06  6.4727E-06   12.691
   448    0   0.8000   0.8000   0.7500  0.10000   5.2740E-06 -2.6897E-06  5.9202E-06  -27.021
   449    0   0.8000   0.8000   0.8500  0.10000   3.2013E-06 -4.5759E-06  5.5845E-06  -55.023
   450    0   0.8000   0.8000   0.9500  0.10000   9.2315E-07 -2.7456E-06  2.8966E-06  -71.416
   451    0   1.0000   0.8000   0.0500  0.10000   7.1939E-08 -4.0212E-07  4.0851E-07  -79.857
   452    0   1.0000   0.8000   0.1500  0.10000   2.1282E-06 -4.9450E-07  2.1849E-06  -13.081
   453    0   1.0000   0.8000   0.2500  0.10000   5.0550E-06  2.2152E-07  5.0598E-06    2.509
   454    0   1.0000   0.8000   0.3500  0.10000   7.1553E-06  1.3921E-06  7.2894E-06   11.010
   455    0   1.0000   0.8000   0.4500  0.10000   7.3728E-06  2.5074E-06  7.7875E-06   18.783
   456    0   1.0000   0.8000   0.5500  0.10000   5.5348E-06  3.0976E-06  6.3426E-06   29.234
   457    0   1.0000   0.8000   0.6500  0.10000   2.3582E-06  2.9250E-06  3.7572E-06   51.124
   458    0   1.0000   0.8000   0.7500  0.10000  -8.4789E-07  2.0832E-06  2.2491E-06  112.147
   459    0   1.0000   0.8000   0.8500  0.10000  -2.6375E-06  9.6888E-07  2.8098E-06  159.829
   460    0   1.0000   0.8000   0.9500  0.10000  -1.7893E-06  1.4042E-07  1.7948E-06  175.513
   461    0   1.2000   0.8000   0.0500  0.10000  -1.8208E-07 -1.4697E-07  2.3400E-07 -141.090
   462    0   1.2000   0.8000   0.1500  0.10000   7.7580E-07 -1.3635E-06  1.5687E-06  -60.361
   463    0   1.2000   0.8000   0.2500  0.10000   2.5804E-06 -2.7380E-06  3.7624E-06  -46.697
   464    0   1.2000   0.8000   0.3500  0.10000   4.1943E-06 -3.3108E-06  5.3436E-06  -38.286
   465    0   1.2000   0.8000   0.4500  0.10000   4.8262E-06 -2.6493E-06  5.5056E-06  -28.764
   466    0   1.2000   0.8000   0.5500  0.10000   4.1585E-06 -9.1842E-07  4.2588E-06  -12.454
   467    0   1.2000   0.8000   0.6500  0.10000   2.4445E-06  1.2190E-06  2.7316E-06   26.505
   468    0   1.2000   0.8000   0.7500  0.10000   4.0504E-07  2.8672E-06  2.8957E-06   81.959
   469    0   1.2000   0.8000   0.8500  0.10000  -1.0172E-06  3.2067E-06  3.3641E-06  107.600
   470    0   1.2000   0.8000   0.9500  0.10000  -9.1018E-07  1.6671E-06  1.8994E-06  118.633
   471    0   1.4000   0.8000   0.0500  0.10000  -1.5805E-07  3.2827E-07  3.6434E-07  115.709
   472    0   1.4000   0.8000   0.1500  0.10000  -6.0132E-07 -4.6004E-07  7.5711E-07 -142.582
   473    0   1.4000   0.8000   0.2500  0.10000  -8.4520E-07 -2.0788E-06  2.2440E-06 -112.126
   474    0   1.4000   0.8000   0.3500  0.10000  -6.3824E-07 -3.4141E-06  3.4732E-06 -100.589
   475    0   1.4000   0.8000   0.4500  0.10000   1.7478E-08 -3.7047E-06  3.7047E-06  -89.730
   476    0   1.4000   0.8000   0.5500  0.10000   9.0159E-07 -2.7301E-06  2.8751E-06  -71.724
   477    0   1.4000   0.8000   0.6500  0.10000   1.6741E-06 -8.6075E-07  1.8824E-06  -27.211
   478    0   1.4000   0.8000   0.7500  0.10000   2.0103E-06  1.0880E-06  2.2859E-06   28.422
   479    0   1.4000   0.8000   0.8500  0.10000   1.7166E-06  2.1329E-06  2.7379E-06   51.172
   480    0   1.4000   0.8000   0.9500  0.10000   7.5345E-07  1.3649E-06  1.5590E-06   61.100
   481    0   1.6000   0.8000   0.0500  0.10000   1.8722E-07  3.7221E-07  4.1665E-07   63.298
   482    0   1.6000   0.8000   0.1500  0.10000  -5.9948E-07  6.0423E-07  8.5116E-07  134.774
   483    0   1.6000   0.8000   0.2500  0.10000  -1.9296E-06  2.9585E-07  1.9522E-06  171.283
   484    0   1.6000   0.8000   0.3500  0.10000  -2.8372E-06 -3.3243E-07  2.8566E-06 -173.317
   485    0   1.6000   0.8000   0.4500  0.10000  -2.7424E-06 -9.8744E-07  2.9148E-06 -160.198
   486    0   1.6000   0.8000   0.5500  0.10000  -1.5813E-06 -1.3931E-06  2.1074E-06 -138.619
   487    0   1.6000   0.8000   0.6500  0.10000   2.0254E-07 -1.3920E-06  1.4066E-06  -81.721
   488    0   1.6000   0.8000   0.7500  0.10000   1.8335E-06 -1.0081E-06  2.0923E-06  -28.803
   489    0   1.6000   0.8000   0.8500  0.10000   2.4713E-06 -4.4846E-07  2.5117E-06  -10.285
   490    0   1.6000   0.8000   0.9500  0.10000   1.4078E-06 -3.8846E-08  1.4083E-06   -1.581
   491    0   1.8000   0.8000   0.0500  0.10000   6.0305E-07 -3.3344E-07  6.8910E-07  -28.939
   492    0   1.8000   0.8000   0.1500  0.10000   8.1129E-07 -7.5636E-08  8.1481E-07   -5.326
   493    0   1.8000   0.8000   0.2500  0.10000   2.1378E-07  7.2952E-07  7.6019E-07   73.667
   494    0   1.8000   0.8000   0.3500  0.10000  -6.4281E-07  1.4213E-06  1.5599E-06  114.335
   495    0   1.8000   0.8000   0.4500  0.10000  -1.2748E-06  1.5520E-06  2.0084E-06  129.399
   496    0   1.8000   0.8000   0.5500  0.10000  -1.3740E-06  9.9510E-07  1.6965E-06  144.087
   497    0   1.8000   0.8000   0.6500  0.10000  -9.0442E-07 -2.3221E-08  9.0472E-07 -178.529
   498    0   1.8000   0.8000   0.7500  0.10000  -1.1598E-07 -1.0223E-06  1.0288E-06  -96.472
   499    0   1.8000   0.8000   0.8500  0.10000   5.3098E-07 -1.4507E-06  1.5448E-06  -69.897
   500    0   1.8000   0.8000   0.9500  0.10000   4.8175E-07 -8.4218E-07  9.7023E-07  -60.229
   501    0   0.0000   1.0000   0.0500  0.10000  -1.8674E-06  4.3379E-06  4.7227E-06  113.291
   502    0   0.0000   1.0000   0.1500  0.10000  -5.7839E-06  1.5698E-05  1.6730E-05  110.226
   503    0   0.0000   1.0000   0.2500  0.10000  -9.2806E-06  2.5548E-05  2.7181E-05  109.964
   504    0   0.0000   1.0000   0.3500  0.10000  -1.1195E-05  2.8542E-05  3.0659E-05  111.416
   505    0   0.0000   1.0000   0.4500  0.10000  -1.0785E-05  2.2477E-05  2.4930E-05  115.632
   506    0   0.0000   1.0000   0.5500  0.10000  -8.1342E-06  9.1505E-06  1.2243E-05  131.635
   507    0   0.0000   1.0000   0.6500  0.10000  -4.1174E-06 -6.3947E-06  7.6056E-06 -122.776
   508    0   0.0000   1.0000   0.7500  0.10000  -2.3134E-07 -1.7791E-05  1.7793E-05  -90.745
   509    0   0.0000   1.0000   0.8500  0.10000   1.9979E-06 -1.9826E-05  1.9926E-05  -84.245
   510    0   0.0000   1.0000   0.9500  0.10000   1.4944E-06 -9.9398E-06  1.0051E-05  -81.450
   511    0   0.2000   1.0000   0.0500  0.10000   4.5230E-06 -1.6929E-06  4.8294E-06  -20.521
   512    0   0.2000   1.0000   0.1500  0.10000   1.0786E-05 -5.6193E-07  1.0801E-05   -2.982
   513    0   0.2000   1.0000   0.2500  0.10000   1.2799E-05  3.5468E-06  1.3281E-05   15.489
   514    0   0.2000   1.0000   0.3500  0.10000   1.0270E-05  7.4848E-06  1.2708E-05   36.085
   515    0   0.2000   1.0000   0.4500  0.10000   4.3382E-06  8.9073E-06  9.9076E-06   64.032
   516    0   0.2000   1.0000   0.5500  0.10000  -2.6762E-06  6.9014E-06  7.4022E-06  111.195
   517    0   0.2000   1.0000   0.6500  0.10000  -8.1061E-06  2.2374E-06  8.4092E-06  164.570
   518    0   0.2000   1.0000   0.7500  0.10000  -1.0065E-05 -2.8912E-06  1.0472E-05 -163.973
   519    0   0.2000   1.0000   0.8500  0.10000  -8.0985E-06 -5.7072E-06  9.9074E-06 -144.827
   520    0   0.2000   1.0000   0.9500  0.10000  -3.1793E-06 -3.6501E-06  4.8406E-06 -131.056
   521    0   0.4000   1.0000   0.0500  0.10000   2.0637E-06 -3.0171E-06  3.6553E-06  -55.628
   522    0   0.4000   1.0000   0.1500  0.10000   5.6507E-06 -4.5506E-06  7.2553E-06  -38.845
   523    0   0.4000   1.0000   0.2500  0.10000   7.7843E-06 -2.2336E-06  8.0985E-06  -16.010
   524    0   0.4000   1.0000   0.3500  0.10000   7.8260E-06  1.6649E-06  8.0011E-06   12.010
   525    0   0.4000   1.0000   0.4500  0.10000   5.8679E-06  4.9726E-06  7.6915E-06   40.279
   526    0   0.4000   1.0000   0.5500  0.10000   2.6928E-06  6.1506E-06  6.7142E-06   66.355
   527    0   0.4000   1.0000   0.6500  0.10000  -5.6590E-07  4.8495E-06  4.8824E-06   96.656
   528    0   0.4000   1.0000   0.7500  0.10000  -2.7502E-06  1.9187E-06  3.3533E-06  145.097
   529    0   0.4000   1.0000   0.8500  0.10000  -3.1186E-06 -8.6689E-07  3.2368E-06 -164.465
   530    0   0.4000   1.0000   0.9500  0.10000  -1.5263E-06 -1.3438E-06  2.0336E-06 -138.640
   531    0   0.6000   1.0000   0.0500  0.10000  -1.4471E-06 -1.1132E-06  1.8258E-06 -142.430
   532    0   0.6000   1.0000   0.1500  0.10000  -1.9720E-06 -9.5625E-07  2.1916E-06 -154.131
   533    0   0.6000   1.0000   0.2500  0.10000  -3.8388E-07  9.3640E-07  1.0120E-06  112.291
   534    0   0.6000   1.0000   0.3500  0.10000   2.2419E-06  3.0181E-06  3.7597E-06   53.394
   535    0   0.6000   1.0000   0.4500  0.10000   4.7704E-06  4.0500E-06  6.2578E-06   40.331
   536    0   0.6000   1.0000   0.5500  0.10000   6.2289E-06  3.4375E-06  7.1145E-06   28.892
   537    0   0.6000   1.0000   0.6500  0.10000   6.1039E-06  1.4233E-06  6.2677E-06   13.126
   538    0   0.6000   1.0000   0.7500  0.10000   4.5410E-06 -1.0143E-06  4.6529E-06  -12.591
   539    0   0.6000   1.0000   0.8500  0.10000   2.2839E-06 -2.5128E-06  3.3957E-06  -47.732
   540    0   0.6000   1.0000   0.9500  0.10000   4.2549E-07 -1.7080E-06  1.7602E-06  -76.012
   541    0   0.8000   1.0000   0.0500  0.10000  -7.5963E-07 -9.0850E-07  1.1842E-06 -129.900
   542    0   0.8000   1.0000   0.1500  0.10000   5.8036E-08 -1.8192E-06  1.8201E-06  -88.173
   543    0   0.8000   1.0000   0.2500  0.10000   2.4367E-06 -1.6626E-06  2.9499E-06  -34.306
   544    0   0.8000   1.0000   0.3500  0.10000   4.7860E-06 -7.1001E-07  4.8384E-06   -8.438
   545    0   0.8000   1.0000   0.4500  0.10000   5.9070E-06  5.5370E-07  5.9329E-06    5.355
   546    0   0.8000   1.0000   0.5500  0.10000   5.2718E-06  1.5786E-06  5.5030E-06   16.670
   547    0   0.8000   1.0000   0.6500  0.10000   3.1655E-06  1.9632E-06  3.7248E-06   31.806
   548    0   0.8000   1.0000   0.7500  0.10000   5.4312E-07  1.6186E-06  1.7073E-06   71.451
   549    0   0.8000   1.0000   0.8500  0.10000  -1.3207E-06  8.1907E-07  1.5541E-06  148.195
   550    0   0.8000   1.0000   0.9500  0.10000  -1.1934E-06  1.1693E-07  1.1991E-06  174.404
   551    0   1.0000   1.0000   0.0500  0.10000  -8.0048E-07 -2.3524E-07  8.3433E-07 -163.624
   552    0   1.0000   1.0000   0.1500  0.10000  -6.0919E-07 -1.3994E-06  1.5263E-06 -113.524
   553    0   1.0000   1.0000   0.2500  0.10000   9.6034E-07 -2.6273E-06  2.7973E-06  -69.921
   554    0   1.0000   1.0000   0.3500  0.10000   2.8054E-06 -3.1296E-06  4.2029E-06  -48.126
   555    0   1.0000   1.0000   0.4500  0.10000   3.9812E-06 -2.5520E-06  4.7289E-06  -32.661
   556    0   1.0000   1.0000   0.5500  0.10000   3.9421E-06 -1.0510E-06  4.0798E-06  -14.928
   557    0   1.0000   1.0000   0.6500  0.10000   2.7153E-06  7.9169E-07  2.8283E-06   16.255
   558    0   1.0000   1.0000   0.7500  0.10000   8.8314E-07  2.2039E-06  2.3743E-06   68.163
   559    0   1.0000   1.0000   0.8500  0.10000  -6.1985E-07  2.5094E-06  2.5848E-06  103.875
   560    0   1.0000   1.0000   0.9500  0.10000  -7.6800E-07  1.2968E-06  1.5072E-06  120.634
   561    0   1.2000   1.0000   0.0500  0.10000  -6.0530E-07  7.6468E-07  9.7526E-07  128.364
   562    0   1.2000   1.0000   0.1500  0.10000  -1.3051E-06  5.6582E-07  1.4225E-06  156.561
   563    0   1.2000   1.0000   0.2500  0.10000  -1.2980E-06 -8.5693E-07  1.5553E-06 -146.567
   564    0   1.2000   1.0000   0.3500  0.10000  -6.4845E-07 -2.4037E-06  2.4897E-06 -105.097
   565    0   1.2000   1.0000   0.4500  0.10000   3.7309E-07 -3.2092E-06  3.2308E-06  -83.369
   566    0   1.2000   1.0000   0.5500  0.10000   1.3681E-06 -2.8519E-06  3.1631E-06  -64.372
   567    0   1.2000   1.0000   0.6500  0.10000   1.9587E-06 -1.4815E-06  2.4559E-06  -37.103
   568    0   1.2000   1.0000   0.7500  0.10000   1.9352E-06  2.4847E-07  1.9511E-06    7.316
   569    0   1.2000   1.0000   0.8500  0.10000   1.3420E-06  1.4111E-06  1.9473E-06   46.437
   570    0   1.2000   1.0000   0.9500  0.10000   4.5427E-07  1.0586E-06  1.1519E-06   66.775
   571    0   1.4000   1.0000   0.0500  0.10000   2.0526E-07  9.0474E-07  9.2773E-07   77.218
   572    0   1.4000   1.0000   0.1500  0.10000  -3.2747E-07  1.4708E-06  1.5069E-06  102.552
   573    0   1.4000   1.0000   0.2500  0.10000  -1.3490E-06  8.8922E-07  1.6157E-06  146.608
   574    0   1.4000   1.0000   0.3500  0.10000  -2.1164E-06 -2.7072E-07  2.1337E-06 -172.711
   575    0   1.4000   1.0000   0.4500  0.10000  -2.1565E-06 -1.3979E-06  2.5699E-06 -147.048
   576    0   1.4000   1.0000   0.5500  0.10000  -1.3779E-06 -1.9928E-06  2.4228E-06 -124.662
   577    0   1.4000   1.0000   0.6500  0.10000  -8.4628E-08 -1.8379E-06  1.8399E-06  -92.636
   578    0   1.4000   1.0000   0.7500  0.10000   1.1478E-06 -1.0782E-06  1.5748E-06  -43.211
   579    0   1.4000   1.0000   0.8500  0.10000   1.6814E-06 -1.7730E-07  1.6908E-06   -6.019
   580    0   1.4000   1.0000   0.9500  0.10000   9.8309E-07  2.1751E-07  1.0069E-06   12.476
   581    0   1.6000   1.0000   0.0500  0.10000   7.8144E-07  3.8213E-07  8.6987E-07   26.059
   582    0   1.6000   1.0000   0.1500  0.10000   9.8405E-07  1.2409E-06  1.5837E-06   51.585
   583    0   1.6000   1.0000   0.2500  0.10000   1.0475E-07  1.8572E-06  1.8602E-06   86.772
   584    0   1.6000   1.0000   0.3500  0.10000  -1.0960E-06  1.9025E-06  2.1956E-06  119.945
   585    0   1.6000   1.0000   0.4500  0.10000  -1.9493E-06  1.3046E-06  2.3456E-06  146.207
   586    0   1.6000   1.0000   0.5500  0.10000  -2.0413E-06  2.6734E-07  2.0587E-06  172.539
   587    0   1.6000   1.0000   0.6500  0.10000  -1.3455E-06 -8.1396E-07  1.5726E-06 -148.828
   588    0   1.6000   1.0000   0.7500  0.10000  -2.3005E-07 -1.5075E-06  1.5250E-06  -98.676
   589    0   1.6000   1.0000   0.8500  0.10000   6.6922E-07 -1.5089E-06  1.6507E-06  -66.082
   590    0   1.6000   1.0000   0.9500  0.10000   6.2465E-07 -7.1526E-07  9.4962E-07  -48.869
   591    0   1.8000   1.0000   0.0500  0.10000   6.3175E-07 -7.7232E-07  9.9779E-07  -50.717
   592    0   1.8000   1.0000   0.1500  0.10000   1.3772E-06 -1.0205E-06  1.7141E-06  -36.537
   593    0   1.8000   1.0000   0.2500  0.10000   1.5022E-06 -2.2300E-07  1.5186E-06   -8.444
   594    0   1.8000   1.0000   0.3500  0.10000   1.0961E-06  9.0935E-07  1.4242E-06   39.680
   595    0   1.8000   1.0000   0.4500  0.10000   3.7462E-07  1.7374E-06  1.7773E-06   77.832
   596    0   1.8000   1.0000   0.5500  0.10000  -3.6241E-07  1.8583E-06  1.8933E-06  101.036
   597    0   1.8000   1.0000   0.6500  0.10000  -8.3630E-07  1.2419E-06  1.4972E-06  123.957
   598    0   1.8000   1.0000   0.7500  0.10000  -8.9817E-07  2.3376E-07  9.2810E-07  165.412
   599    0   1.8000   1.0000   0.8500  0.10000  -5.9608E-07 -5.7831E-07  8.3051E-07 -135.867
   600    0   1.8000   1.0000   0.9500  0.10000  -1.6544E-07 -5.4590E-07  5.7042E-07 -106.860



                                        - - - POWER BUDGET - - -

                                           INPUT POWER   = 3.3865E-04 WATTS
                                           RADIATED POWER= 3.3865E-04 WATTS
                                           STRUCTURE LOSS= 0.0000E+00 WATTS
                                           NETWORK LOSS  = 0.0000E+00 WATTS
                                           EFFICIENCY    = 100.00 PERCENT






 ***** DATA CARD NO.  3   EN   0     0     0     0  0.00000E+00  0.00000E+00  0.00000E+00  0.00000E+00  0.00000E+00  0.00000E+00

 RUN TIME =    28.860
